ZINC18115268
                    3D
 Structure written by MMmdl.
 33 33  0  0  1  0            999 V2000
   -3.6352   -1.3044    1.1272 C   0  0  0  0  0  0
   -3.3100   -0.0815    1.9176 C   0  0  0  0  0  0
   -2.9216    1.1823    1.5222 C   0  0  0  0  0  0
   -2.7294    1.9926    2.6453 N   0  0  0  0  0  0
   -3.0071    1.1974    3.6709 C   0  0  0  0  0  0
   -3.3552   -0.0377    3.3008 N   0  0  0  0  0  0
   -2.7016    1.7081    0.1346 C   0  0  0  0  0  0
   -0.9336    2.0108   -0.1511 S   0  0  0  0  0  0
   -0.2649    0.3246   -0.0362 C   0  0  0  0  0  0
    1.2644    0.3112   -0.1320 C   0  0  0  0  0  0
    1.8724    1.0014    0.9954 N   0  0  0  0  0  0
    3.2375    1.1455    1.2055 C   0  0  0  0  0  0
    3.5515    1.9108    2.3346 N   0  0  0  0  0  0
    2.5954    2.5464    3.2285 C   0  0  0  0  0  0
    4.0893    0.5936    0.3917 N   0  0  0  0  0  0
    5.3849    0.7626    0.6392 C   0  0  0  0  0  0
    6.5149    0.9050    0.8477 N   0  0  0  0  0  0
   -2.8891   -1.4739    0.3507 H   0  0  0  0  0  0
   -4.6072   -1.2029    0.6441 H   0  0  0  0  0  0
   -3.6643   -2.1895    1.7630 H   0  0  0  0  0  0
   -2.9563    1.5172    4.7013 H   0  0  0  0  0  0
   -3.0699    1.0096   -0.6169 H   0  0  0  0  0  0
   -3.2431    2.6432   -0.0093 H   0  0  0  0  0  0
   -0.5742   -0.1327    0.9035 H   0  0  0  0  0  0
   -0.6948   -0.2738   -0.8396 H   0  0  0  0  0  0
    1.6209   -0.7193   -0.1496 H   0  0  0  0  0  0
    1.5874    0.7784   -1.0631 H   0  0  0  0  0  0
    1.2032    1.4325    1.6170 H   0  0  0  0  0  0
    3.1231    3.1163    3.9932 H   0  0  0  0  0  0
    1.9769    1.7990    3.7261 H   0  0  0  0  0  0
    1.9465    3.2310    2.6808 H   0  0  0  0  0  0
   -3.6047   -0.7977    3.9173 H   0  0  0  0  0  0
    4.5155    2.0766    2.5878 H   0  0  0  0  0  0
  1  2  1  0  0  0
  1 18  1  0  0  0
  1 19  1  0  0  0
  1 20  1  0  0  0
  2  6  1  0  0  0
  2  3  2  0  0  0
  3  4  1  0  0  0
  3  7  1  0  0  0
  4  5  2  0  0  0
  5  6  1  0  0  0
  5 21  1  0  0  0
  6 32  1  0  0  0
  7  8  1  0  0  0
  7 22  1  0  0  0
  7 23  1  0  0  0
  8  9  1  0  0  0
  9 10  1  0  0  0
  9 24  1  0  0  0
  9 25  1  0  0  0
 10 11  1  0  0  0
 10 26  1  0  0  0
 10 27  1  0  0  0
 11 12  1  0  0  0
 11 28  1  0  0  0
 12 13  1  0  0  0
 12 15  2  0  0  0
 13 14  1  0  0  0
 13 33  1  0  0  0
 14 29  1  0  0  0
 14 30  1  0  0  0
 14 31  1  0  0  0
 15 16  1  0  0  0
 16 17  3  0  0  0
M  END
> <s_m_entry_id>
8

> <s_m_entry_name>
biosynth_p1.0.sdf.1

> <s_m_Source_Path>
/Users/Sebastito/Downloads

> <s_m_Source_File>
biosynth_p1.0.sdf.gz

> <i_m_Source_File_Index>
1

> <chiral flag>
0

> <version>
0

> <i_m_ct_enhanced_stereo_status>
0

> <s_m_source_file>
ligprep_vs.maegz

> <i_m_source_file_index>
1

> <i_lp_mmshare_version>
37011

> <r_lp_tautomer_probability>
0.5

> <r_epik_Ionization_Penalty>
0.291778

> <r_epik_Ionization_Penalty_Charging>
0.265381

> <r_epik_Ionization_Penalty_Neutral>
0.0263964

> <r_epik_State_Penalty>
0.55287

> <r_epik_Charging_Adjusted_Penalty>
0.818251

> <i_epik_Tot_Q>
0

> <i_epik_Tot_abs_Q>
0

> <s_epik_Chemistry_Notes>
This compound has an imine and may undergo hydrolysis.

> <i_f3d_flags>
0

> <s_lp_Force_Field>
OPLS_2005

> <r_lp_Energy>
6.7109

> <b_lp_Chiralities_Consistent>
1

> <s_lp_Variant>
ZINC18115268-1

$$$$
ZINC18115268
                    3D
 Structure written by MMmdl.
 34 34  0  0  1  0            999 V2000
   -2.8389   -2.0918   -0.8673 C   0  0  0  0  0  0
   -2.9131   -0.7705   -1.5553 C   0  0  0  0  0  0
   -2.7190    0.5141   -1.1001 C   0  0  0  0  0  0
   -2.9147    1.3346   -2.1817 N   0  3  0  0  0  0
   -3.2180    0.6182   -3.2661 C   0  0  0  0  0  0
   -3.2179   -0.6616   -2.8877 N   0  0  0  0  0  0
   -2.3643    1.0505    0.2484 C   0  0  0  0  0  0
   -0.6158    1.5348    0.2991 S   0  0  0  0  0  0
    0.2004   -0.0804    0.1303 C   0  0  0  0  0  0
    1.7316    0.0021    0.2471 C   0  0  0  0  0  0
    2.3635    0.5765   -0.9352 N   0  0  0  0  0  0
    2.7060    1.9119   -1.1239 C   0  0  0  0  0  0
    3.2087    2.1850   -2.4014 N   0  0  0  0  0  0
    3.3932    1.2194   -3.4734 C   0  0  0  0  0  0
    2.5538    2.7756   -0.1631 N   0  0  0  0  0  0
    2.8900    4.0400   -0.4008 C   0  0  0  0  0  0
    3.1739    5.1432   -0.6066 N   0  0  0  0  0  0
   -2.4693   -1.9750    0.1516 H   0  0  0  0  0  0
   -2.1637   -2.7591   -1.4035 H   0  0  0  0  0  0
   -3.8266   -2.5513   -0.8276 H   0  0  0  0  0  0
   -3.4222    0.9978   -4.2513 H   0  0  0  0  0  0
   -2.9842    1.9200    0.4678 H   0  0  0  0  0  0
   -2.5647    0.3038    1.0168 H   0  0  0  0  0  0
   -0.1827   -0.7271    0.9199 H   0  0  0  0  0  0
   -0.0796   -0.5398   -0.8176 H   0  0  0  0  0  0
    2.0185    0.5471    1.1474 H   0  0  0  0  0  0
    2.1320   -1.0050    0.3648 H   0  0  0  0  0  0
    2.5154   -0.0953   -1.6733 H   0  0  0  0  0  0
    3.8228    1.7112   -4.3461 H   0  0  0  0  0  0
    2.4391    0.7791   -3.7650 H   0  0  0  0  0  0
    4.0695    0.4215   -3.1648 H   0  0  0  0  0  0
   -3.4168   -1.4418   -3.5017 H   0  0  0  0  0  0
    3.4988    3.1216   -2.6461 H   0  0  0  0  0  0
   -2.8370    2.3439   -2.1629 H   0  0  0  0  0  0
  1  2  1  0  0  0
  1 18  1  0  0  0
  1 19  1  0  0  0
  1 20  1  0  0  0
  2  6  1  0  0  0
  2  3  2  0  0  0
  3  4  1  0  0  0
  3  7  1  0  0  0
  4  5  2  0  0  0
  4 34  1  0  0  0
  5  6  1  0  0  0
  5 21  1  0  0  0
  6 32  1  0  0  0
  7  8  1  0  0  0
  7 22  1  0  0  0
  7 23  1  0  0  0
  8  9  1  0  0  0
  9 10  1  0  0  0
  9 24  1  0  0  0
  9 25  1  0  0  0
 10 11  1  0  0  0
 10 26  1  0  0  0
 10 27  1  0  0  0
 11 12  1  0  0  0
 11 28  1  0  0  0
 12 13  1  0  0  0
 12 15  2  0  0  0
 13 14  1  0  0  0
 13 33  1  0  0  0
 14 29  1  0  0  0
 14 30  1  0  0  0
 14 31  1  0  0  0
 15 16  1  0  0  0
 16 17  3  0  0  0
M  CHG  1   4   1
M  END
> <s_m_entry_id>
8

> <s_m_entry_name>
biosynth_p1.0.sdf.1

> <s_m_Source_Path>
/Users/Sebastito/Downloads

> <s_m_Source_File>
biosynth_p1.0.sdf.gz

> <i_m_Source_File_Index>
1

> <chiral flag>
0

> <version>
0

> <i_m_ct_enhanced_stereo_status>
0

> <s_m_source_file>
ligprep_vs.maegz

> <i_m_source_file_index>
1

> <i_lp_mmshare_version>
37011

> <r_lp_tautomer_probability>
1

> <r_epik_Ionization_Penalty>
0.903339

> <r_epik_Ionization_Penalty_Charging>
0

> <r_epik_Ionization_Penalty_Neutral>
0.903339

> <r_epik_State_Penalty>
0.682096

> <r_epik_Charging_Adjusted_Penalty>
0.682096

> <i_epik_Tot_Q>
1

> <i_epik_Tot_abs_Q>
1

> <s_epik_Chemistry_Notes>
This compound has an imine and may undergo hydrolysis.

> <i_f3d_flags>
0

> <s_lp_Force_Field>
OPLS_2005

> <r_lp_Energy>
10.6845

> <b_lp_Chiralities_Consistent>
1

> <s_lp_Variant>
ZINC18115268-2

$$$$
ZINC18115268
                    3D
 Structure written by MMmdl.
 33 33  0  0  1  0            999 V2000
   -1.8892    3.8401   -1.4224 C   0  0  0  0  0  0
   -2.2621    2.4682   -1.8910 C   0  0  0  0  0  0
   -2.5251    1.3403   -1.1406 C   0  0  0  0  0  0
   -2.8292    0.3511   -2.0615 N   0  0  0  0  0  0
   -2.7382    0.8965   -3.2769 C   0  0  0  0  0  0
   -2.3955    2.1783   -3.2515 N   0  0  0  0  0  0
   -2.5258    1.1146    0.3377 C   0  0  0  0  0  0
   -0.8308    1.1788    0.9858 S   0  0  0  0  0  0
   -0.1378   -0.3640    0.3198 C   0  0  0  0  0  0
    1.3004   -0.1746   -0.1878 C   0  0  0  0  0  0
    1.3825    0.7483   -1.3132 N   0  0  0  0  0  0
    0.9847    0.4759   -2.6178 C   0  0  0  0  0  0
    1.0519    1.5854   -3.4680 N   0  0  0  0  0  0
    1.4768    2.9251   -3.0948 C   0  0  0  0  0  0
    0.5932   -0.7196   -2.9501 N   0  0  0  0  0  0
    0.2068   -0.9220   -4.2060 C   0  0  0  0  0  0
   -0.1435   -1.1005   -5.2946 N   0  0  0  0  0  0
   -1.0855    3.8007   -0.6876 H   0  0  0  0  0  0
   -2.7389    4.3389   -0.9570 H   0  0  0  0  0  0
   -1.5485    4.4668   -2.2469 H   0  0  0  0  0  0
   -2.9175    0.3477   -4.1898 H   0  0  0  0  0  0
   -2.9774    0.1544    0.5892 H   0  0  0  0  0  0
   -3.1173    1.8879    0.8280 H   0  0  0  0  0  0
   -0.1588   -1.1134    1.1110 H   0  0  0  0  0  0
   -0.7707   -0.7482   -0.4788 H   0  0  0  0  0  0
    1.9301    0.2055    0.6167 H   0  0  0  0  0  0
    1.7218   -1.1371   -0.4804 H   0  0  0  0  0  0
    1.6923    1.6736   -1.0540 H   0  0  0  0  0  0
    1.3699    3.5986   -3.9448 H   0  0  0  0  0  0
    2.5226    2.9257   -2.7868 H   0  0  0  0  0  0
    0.8701    3.3114   -2.2760 H   0  0  0  0  0  0
   -3.0713   -0.6073   -1.8545 H   0  0  0  0  0  0
    0.7695    1.5057   -4.4349 H   0  0  0  0  0  0
  1 18  1  0  0  0
  1 19  1  0  0  0
  1 20  1  0  0  0
  1  2  1  0  0  0
  2  3  2  0  0  0
  2  6  1  0  0  0
  3  7  1  0  0  0
  3  4  1  0  0  0
  4 32  1  0  0  0
  4  5  1  0  0  0
  5 21  1  0  0  0
  5  6  2  0  0  0
  7  8  1  0  0  0
  7 22  1  0  0  0
  7 23  1  0  0  0
  8  9  1  0  0  0
  9 10  1  0  0  0
  9 24  1  0  0  0
  9 25  1  0  0  0
 10 11  1  0  0  0
 10 26  1  0  0  0
 10 27  1  0  0  0
 11 12  1  0  0  0
 11 28  1  0  0  0
 12 13  1  0  0  0
 12 15  2  0  0  0
 13 14  1  0  0  0
 13 33  1  0  0  0
 14 29  1  0  0  0
 14 30  1  0  0  0
 14 31  1  0  0  0
 15 16  1  0  0  0
 16 17  3  0  0  0
M  END
> <s_m_entry_id>
8

> <s_m_entry_name>
biosynth_p1.0.sdf.1

> <s_m_Source_Path>
/Users/Sebastito/Downloads

> <s_m_Source_File>
biosynth_p1.0.sdf.gz

> <i_m_Source_File_Index>
1

> <chiral flag>
0

> <version>
0

> <i_m_ct_enhanced_stereo_status>
0

> <s_m_source_file>
ligprep_vs.maegz

> <i_m_source_file_index>
1

> <i_lp_mmshare_version>
37011

> <r_lp_tautomer_probability>
0.5

> <r_epik_Ionization_Penalty>
0.614101

> <r_epik_Ionization_Penalty_Charging>
0.587704

> <r_epik_Ionization_Penalty_Neutral>
0.0263966

> <r_epik_State_Penalty>
0.784558

> <r_epik_Charging_Adjusted_Penalty>
1.37226

> <i_epik_Tot_Q>
0

> <i_epik_Tot_abs_Q>
0

> <s_epik_Chemistry_Notes>
This compound has an imine and may undergo hydrolysis.

> <i_f3d_flags>
0

> <s_lp_Force_Field>
OPLS_2005

> <r_lp_Energy>
3.33235

> <b_lp_Chiralities_Consistent>
1

> <s_lp_Variant>
ZINC18115268-3

$$$$
ZINC18115268
                    3D
 Structure written by MMmdl.
 34 34  0  0  1  0            999 V2000
   -2.6510    3.7492   -1.6459 C   0  0  0  0  0  0
   -2.9995    2.3034   -1.5261 C   0  0  0  0  0  0
   -3.0347    1.4607   -0.4339 C   0  0  0  0  0  0
   -3.4208    0.1786   -0.8360 N   0  0  0  0  0  0
   -3.6048    0.2909   -2.1457 C   0  0  0  0  0  0
   -3.3681    1.5213   -2.6074 N   0  0  0  0  0  0
   -2.7203    1.7619    1.0014 C   0  0  0  0  0  0
   -0.9453    2.0930    1.2041 S   0  0  0  0  0  0
   -0.2412    0.5128    0.6602 C   0  0  0  0  0  0
    1.2757    0.4770    0.8725 C   0  0  0  0  0  0
    1.8516   -0.7863    0.3913 N   0  0  0  0  0  0
    1.8654   -1.9603    1.0549 C   0  0  0  0  0  0
    2.4090   -3.0447    0.4596 N   0  0  0  0  0  0
    3.0052   -3.0803   -0.8816 C   0  0  0  0  0  0
    1.3355   -2.0314    2.2983 N   0  3  0  0  0  0
    1.2716   -3.1317    3.0789 C   0  0  0  0  0  0
    1.2301   -4.1009    3.7086 N   0  0  0  0  0  0
   -1.5801    3.8744   -1.8066 H   0  0  0  0  0  0
   -2.9217    4.2909   -0.7395 H   0  0  0  0  0  0
   -3.1760    4.2116   -2.4819 H   0  0  0  0  0  0
   -3.9133   -0.5306   -2.7753 H   0  0  0  0  0  0
   -3.2798    2.6336    1.3408 H   0  0  0  0  0  0
   -3.0029    0.9321    1.6502 H   0  0  0  0  0  0
   -0.7211   -0.2928    1.2166 H   0  0  0  0  0  0
   -0.4738    0.3595   -0.3939 H   0  0  0  0  0  0
    1.7433    1.2947    0.3234 H   0  0  0  0  0  0
    1.5246    0.6203    1.9242 H   0  0  0  0  0  0
    2.2288   -0.7716   -0.5456 H   0  0  0  0  0  0
    3.3496   -4.0882   -1.1129 H   0  0  0  0  0  0
    3.8573   -2.4026   -0.9388 H   0  0  0  0  0  0
    2.2721   -2.7857   -1.6329 H   0  0  0  0  0  0
   -3.4471    1.8245   -3.5676 H   0  0  0  0  0  0
    2.4103   -3.9156    0.9716 H   0  0  0  0  0  0
    0.9459   -1.1867    2.6913 H   0  0  0  0  0  0
  1  2  1  0  0  0
  1 18  1  0  0  0
  1 19  1  0  0  0
  1 20  1  0  0  0
  2  6  1  0  0  0
  2  3  2  0  0  0
  3  4  1  0  0  0
  3  7  1  0  0  0
  4  5  2  0  0  0
  5  6  1  0  0  0
  5 21  1  0  0  0
  6 32  1  0  0  0
  7  8  1  0  0  0
  7 22  1  0  0  0
  7 23  1  0  0  0
  8  9  1  0  0  0
  9 10  1  0  0  0
  9 24  1  0  0  0
  9 25  1  0  0  0
 10 11  1  0  0  0
 10 26  1  0  0  0
 10 27  1  0  0  0
 11 12  1  0  0  0
 11 28  1  0  0  0
 12 13  1  0  0  0
 12 15  2  0  0  0
 13 14  1  0  0  0
 13 33  1  0  0  0
 14 29  1  0  0  0
 14 30  1  0  0  0
 14 31  1  0  0  0
 15 16  1  0  0  0
 15 34  1  0  0  0
 16 17  3  0  0  0
M  CHG  1  15   1
M  END
> <s_m_entry_id>
8

> <s_m_entry_name>
biosynth_p1.0.sdf.1

> <s_m_Source_Path>
/Users/Sebastito/Downloads

> <s_m_Source_File>
biosynth_p1.0.sdf.gz

> <i_m_Source_File_Index>
1

> <chiral flag>
0

> <version>
0

> <i_m_ct_enhanced_stereo_status>
0

> <s_m_source_file>
ligprep_vs.maegz

> <i_m_source_file_index>
1

> <i_lp_mmshare_version>
37011

> <r_epik_Ionization_Penalty>
2.08309

> <r_epik_Ionization_Penalty_Charging>
2.08309

> <r_epik_Ionization_Penalty_Neutral>
5.53794e-08

> <r_epik_State_Penalty>
2.50566

> <r_epik_Charging_Adjusted_Penalty>
4.58876

> <i_epik_Tot_Q>
1

> <i_epik_Tot_abs_Q>
1

> <s_epik_Chemistry_Notes>
This compound has an imine and may undergo hydrolysis.

> <i_f3d_flags>
0

> <s_lp_Force_Field>
OPLS_2005

> <r_lp_Energy>
5.19934

> <b_lp_Chiralities_Consistent>
1

> <s_lp_Variant>
ZINC18115268-4

$$$$
ZINC18115268
                    3D
 Structure written by MMmdl.
 33 33  0  0  1  0            999 V2000
   -3.6290   -1.3057    1.1281 C   0  0  0  0  0  0
   -3.3112   -0.0802    1.9175 C   0  0  0  0  0  0
   -2.9263    1.1842    1.5211 C   0  0  0  0  0  0
   -2.7398    1.9971    2.6433 N   0  0  0  0  0  0
   -3.6081   -0.7944    3.9176 H   0  0  0  0  0  0
   -3.0167    1.2024    3.6696 C   0  0  0  0  0  0
   -3.3597   -0.0343    3.3007 N   0  0  0  0  0  0
   -2.7031    1.7080    0.1331 C   0  0  0  0  0  0
   -0.9346    2.0111   -0.1481 S   0  0  0  0  0  0
   -0.2660    0.3247   -0.0330 C   0  0  0  0  0  0
    1.2633    0.3114   -0.1304 C   0  0  0  0  0  0
    1.8731    1.0009    0.9964 N   0  0  0  0  0  0
    3.2385    1.1472    1.2029 C   0  0  0  0  0  0
    3.5545    1.9116    2.3321 N   0  0  0  0  0  0
    2.5995    2.5371    3.2342 C   0  0  0  0  0  0
    4.0889    0.5984    0.3855 N   0  0  0  0  0  0
    5.3850    0.7694    0.6295 C   0  0  0  0  0  0
    6.5148    0.9159    0.8353 N   0  0  0  0  0  0
   -2.8731   -1.4800    0.3624 H   0  0  0  0  0  0
   -4.5944   -1.2045    0.6321 H   0  0  0  0  0  0
   -3.6681   -2.1884    1.7669 H   0  0  0  0  0  0
   -2.9687    1.5240    4.6996 H   0  0  0  0  0  0
   -3.2447    2.6427   -0.0139 H   0  0  0  0  0  0
   -3.0691    1.0079   -0.6181 H   0  0  0  0  0  0
   -0.5751   -0.1325    0.9067 H   0  0  0  0  0  0
   -0.6968   -0.2738   -0.8361 H   0  0  0  0  0  0
    1.6196   -0.7193   -0.1491 H   0  0  0  0  0  0
    1.5855    0.7791   -1.0617 H   0  0  0  0  0  0
    1.2051    1.4306    1.6201 H   0  0  0  0  0  0
    3.1276    3.1087    3.9972 H   0  0  0  0  0  0
    1.9894    1.7833    3.7329 H   0  0  0  0  0  0
    1.9421    3.2182    2.6926 H   0  0  0  0  0  0
    4.5189    2.0819    2.5811 H   0  0  0  0  0  0
  1 19  1  0  0  0
  1 20  1  0  0  0
  1 21  1  0  0  0
  1  2  1  0  0  0
  2  3  2  0  0  0
  2  7  1  0  0  0
  3  8  1  0  0  0
  3  4  1  0  0  0
  4  6  2  0  0  0
  5  7  1  0  0  0
  6  7  1  0  0  0
  6 22  1  0  0  0
  8  9  1  0  0  0
  8 23  1  0  0  0
  8 24  1  0  0  0
  9 10  1  0  0  0
 10 11  1  0  0  0
 10 25  1  0  0  0
 10 26  1  0  0  0
 11 12  1  0  0  0
 11 27  1  0  0  0
 11 28  1  0  0  0
 12 13  1  0  0  0
 12 29  1  0  0  0
 13 14  1  0  0  0
 13 16  2  0  0  0
 14 15  1  0  0  0
 14 33  1  0  0  0
 15 30  1  0  0  0
 15 31  1  0  0  0
 15 32  1  0  0  0
 16 17  1  0  0  0
 17 18  3  0  0  0
M  END
> <s_m_entry_id>
9

> <s_m_entry_name>
biosynth_p1.0.sdf.2

> <s_m_Source_Path>
/Users/Sebastito/Downloads

> <s_m_Source_File>
biosynth_p1.0.sdf.gz

> <i_m_Source_File_Index>
2

> <chiral flag>
0

> <version>
0

> <i_m_ct_enhanced_stereo_status>
0

> <s_m_source_file>
ligprep_vs.maegz

> <i_m_source_file_index>
2

> <i_lp_mmshare_version>
37011

> <r_lp_tautomer_probability>
0.5

> <r_epik_Ionization_Penalty>
0.291778

> <r_epik_Ionization_Penalty_Charging>
0.265381

> <r_epik_Ionization_Penalty_Neutral>
0.0263964

> <r_epik_State_Penalty>
0.524268

> <r_epik_Charging_Adjusted_Penalty>
0.789649

> <i_epik_Tot_Q>
0

> <i_epik_Tot_abs_Q>
0

> <s_epik_Chemistry_Notes>
This compound has an imine and may undergo hydrolysis.

> <i_f3d_flags>
0

> <s_lp_Force_Field>
OPLS_2005

> <r_lp_Energy>
6.70974

> <b_lp_Chiralities_Consistent>
1

> <s_lp_Variant>
ZINC18115268-1

$$$$
ZINC18115268
                    3D
 Structure written by MMmdl.
 34 34  0  0  1  0            999 V2000
   -2.8200   -2.0863   -0.8728 C   0  0  0  0  0  0
   -2.9125   -0.7658   -1.5606 C   0  0  0  0  0  0
   -2.7249    0.5201   -1.1066 C   0  0  0  0  0  0
   -2.9381    1.3397   -2.1854 N   0  0  0  0  0  0
   -2.8698    2.3497   -2.1661 H   0  0  0  0  0  0
   -3.2466    0.6215   -3.2670 C   0  0  0  0  0  0
   -3.2321   -0.6586   -2.8896 N   0  3  0  0  0  0
   -2.3635    1.0596    0.2385 C   0  0  0  0  0  0
   -0.6132    1.5379    0.2829 S   0  0  0  0  0  0
    0.1992   -0.0806    0.1276 C   0  0  0  0  0  0
    1.7303   -0.0018    0.2509 C   0  0  0  0  0  0
    2.3683    0.5698   -0.9294 N   0  0  0  0  0  0
    2.7126    1.9048   -1.1177 C   0  0  0  0  0  0
    3.1992    2.1818   -2.4005 N   0  0  0  0  0  0
    3.3967    1.2158   -3.4696 C   0  0  0  0  0  0
    2.5751    2.7654   -0.1520 N   0  0  0  0  0  0
    2.9150    4.0291   -0.3887 C   0  0  0  0  0  0
    3.2032    5.1315   -0.5932 N   0  0  0  0  0  0
   -2.4362   -1.9660    0.1402 H   0  0  0  0  0  0
   -2.1485   -2.7499   -1.4182 H   0  0  0  0  0  0
   -3.8039   -2.5521   -0.8177 H   0  0  0  0  0  0
   -3.4645    1.0003   -4.2497 H   0  0  0  0  0  0
   -2.9794    1.9326    0.4563 H   0  0  0  0  0  0
   -2.5656    0.3172    1.0104 H   0  0  0  0  0  0
   -0.1888   -0.7217    0.9193 H   0  0  0  0  0  0
   -0.0779   -0.5445   -0.8190 H   0  0  0  0  0  0
    2.0139    0.5444    1.1514 H   0  0  0  0  0  0
    2.1279   -1.0094    0.3723 H   0  0  0  0  0  0
    2.5137   -0.1010   -1.6697 H   0  0  0  0  0  0
    3.7798    1.7184   -4.3576 H   0  0  0  0  0  0
    2.4566    0.7295   -3.7321 H   0  0  0  0  0  0
    4.1169    0.4530   -3.1724 H   0  0  0  0  0  0
    3.4807    3.1206   -2.6468 H   0  0  0  0  0  0
   -3.4311   -1.4396   -3.5025 H   0  0  0  0  0  0
  1  2  1  0  0  0
  1 19  1  0  0  0
  1 20  1  0  0  0
  1 21  1  0  0  0
  2  7  1  0  0  0
  2  3  2  0  0  0
  3  4  1  0  0  0
  3  8  1  0  0  0
  4  5  1  0  0  0
  4  6  1  0  0  0
  6  7  2  0  0  0
  6 22  1  0  0  0
  7 34  1  0  0  0
  8  9  1  0  0  0
  8 23  1  0  0  0
  8 24  1  0  0  0
  9 10  1  0  0  0
 10 11  1  0  0  0
 10 25  1  0  0  0
 10 26  1  0  0  0
 11 12  1  0  0  0
 11 27  1  0  0  0
 11 28  1  0  0  0
 12 13  1  0  0  0
 12 29  1  0  0  0
 13 14  1  0  0  0
 13 16  2  0  0  0
 14 15  1  0  0  0
 14 33  1  0  0  0
 15 30  1  0  0  0
 15 31  1  0  0  0
 15 32  1  0  0  0
 16 17  1  0  0  0
 17 18  3  0  0  0
M  CHG  1   7   1
M  END
> <s_m_entry_id>
9

> <s_m_entry_name>
biosynth_p1.0.sdf.2

> <s_m_Source_Path>
/Users/Sebastito/Downloads

> <s_m_Source_File>
biosynth_p1.0.sdf.gz

> <i_m_Source_File_Index>
2

> <chiral flag>
0

> <version>
0

> <i_m_ct_enhanced_stereo_status>
0

> <s_m_source_file>
ligprep_vs.maegz

> <i_m_source_file_index>
2

> <i_lp_mmshare_version>
37011

> <r_lp_tautomer_probability>
1

> <r_epik_Ionization_Penalty>
0.903339

> <r_epik_Ionization_Penalty_Charging>
0

> <r_epik_Ionization_Penalty_Neutral>
0.903339

> <r_epik_State_Penalty>
0.703808

> <r_epik_Charging_Adjusted_Penalty>
0.703808

> <i_epik_Tot_Q>
1

> <i_epik_Tot_abs_Q>
1

> <s_epik_Chemistry_Notes>
This compound has an imine and may undergo hydrolysis.

> <i_f3d_flags>
0

> <s_lp_Force_Field>
OPLS_2005

> <r_lp_Energy>
10.927

> <b_lp_Chiralities_Consistent>
1

> <s_lp_Variant>
ZINC18115268-2

$$$$
ZINC18115268
                    3D
 Structure written by MMmdl.
 33 33  0  0  1  0            999 V2000
   -1.8825    3.8313   -1.4224 C   0  0  0  0  0  0
   -2.2634    2.4612   -1.8900 C   0  0  0  0  0  0
   -2.5313    1.3355   -1.1382 C   0  0  0  0  0  0
   -2.8396    0.3464   -2.0578 N   0  0  0  0  0  0
   -3.0850   -0.6109   -1.8497 H   0  0  0  0  0  0
   -2.7475    0.8902   -3.2739 C   0  0  0  0  0  0
   -2.3991    2.1704   -3.2501 N   0  0  0  0  0  0
   -2.5305    1.1116    0.3405 C   0  0  0  0  0  0
   -0.8350    1.1807    0.9873 S   0  0  0  0  0  0
   -0.1383   -0.3600    0.3203 C   0  0  0  0  0  0
    1.2993   -0.1667   -0.1877 C   0  0  0  0  0  0
    1.3787    0.7559   -1.3134 N   0  0  0  0  0  0
    0.9814    0.4822   -2.6179 C   0  0  0  0  0  0
    1.0486    1.5909   -3.4692 N   0  0  0  0  0  0
    1.4910    2.9266   -3.1020 C   0  0  0  0  0  0
    0.5898   -0.7136   -2.9490 N   0  0  0  0  0  0
    0.2041   -0.9175   -4.2049 C   0  0  0  0  0  0
   -0.1455   -1.0969   -5.2938 N   0  0  0  0  0  0
   -1.0433    3.7910   -0.7282 H   0  0  0  0  0  0
   -2.7139    4.3140   -0.9087 H   0  0  0  0  0  0
   -1.5903    4.4726   -2.2544 H   0  0  0  0  0  0
   -2.9299    0.3411   -4.1860 H   0  0  0  0  0  0
   -3.1234    1.8840    0.8304 H   0  0  0  0  0  0
   -2.9793    0.1506    0.5936 H   0  0  0  0  0  0
   -0.1572   -1.1098    1.1111 H   0  0  0  0  0  0
   -0.7706   -0.7455   -0.4783 H   0  0  0  0  0  0
    1.9280    0.2158    0.6167 H   0  0  0  0  0  0
    1.7236   -1.1280   -0.4798 H   0  0  0  0  0  0
    1.6882    1.6814   -1.0550 H   0  0  0  0  0  0
    1.3918    3.5981   -3.9549 H   0  0  0  0  0  0
    2.5374    2.9150   -2.7952 H   0  0  0  0  0  0
    0.8900    3.3242   -2.2839 H   0  0  0  0  0  0
    0.7633    1.5110   -4.4352 H   0  0  0  0  0  0
  1  2  1  0  0  0
  1 19  1  0  0  0
  1 20  1  0  0  0
  1 21  1  0  0  0
  2  7  1  0  0  0
  2  3  2  0  0  0
  3  4  1  0  0  0
  3  8  1  0  0  0
  4  5  1  0  0  0
  4  6  1  0  0  0
  6  7  2  0  0  0
  6 22  1  0  0  0
  8  9  1  0  0  0
  8 23  1  0  0  0
  8 24  1  0  0  0
  9 10  1  0  0  0
 10 11  1  0  0  0
 10 25  1  0  0  0
 10 26  1  0  0  0
 11 12  1  0  0  0
 11 27  1  0  0  0
 11 28  1  0  0  0
 12 13  1  0  0  0
 12 29  1  0  0  0
 13 14  1  0  0  0
 13 16  2  0  0  0
 14 15  1  0  0  0
 14 33  1  0  0  0
 15 30  1  0  0  0
 15 31  1  0  0  0
 15 32  1  0  0  0
 16 17  1  0  0  0
 17 18  3  0  0  0
M  END
> <s_m_entry_id>
9

> <s_m_entry_name>
biosynth_p1.0.sdf.2

> <s_m_Source_Path>
/Users/Sebastito/Downloads

> <s_m_Source_File>
biosynth_p1.0.sdf.gz

> <i_m_Source_File_Index>
2

> <chiral flag>
0

> <version>
0

> <i_m_ct_enhanced_stereo_status>
0

> <s_m_source_file>
ligprep_vs.maegz

> <i_m_source_file_index>
2

> <i_lp_mmshare_version>
37011

> <r_lp_tautomer_probability>
0.5

> <r_epik_Ionization_Penalty>
0.614101

> <r_epik_Ionization_Penalty_Charging>
0.587704

> <r_epik_Ionization_Penalty_Neutral>
0.0263966

> <r_epik_State_Penalty>
0.832121

> <r_epik_Charging_Adjusted_Penalty>
1.41982

> <i_epik_Tot_Q>
0

> <i_epik_Tot_abs_Q>
0

> <s_epik_Chemistry_Notes>
This compound has an imine and may undergo hydrolysis.

> <i_f3d_flags>
0

> <s_lp_Force_Field>
OPLS_2005

> <r_lp_Energy>
3.32978

> <b_lp_Chiralities_Consistent>
1

> <s_lp_Variant>
ZINC18115268-3

$$$$
ZINC18115268
                    3D
 Structure written by MMmdl.
 34 34  0  0  1  0            999 V2000
   -2.6580    3.7565   -1.6418 C   0  0  0  0  0  0
   -3.0034    2.3095   -1.5286 C   0  0  0  0  0  0
   -3.0376    1.4621   -0.4400 C   0  0  0  0  0  0
   -3.4194    0.1805   -0.8477 N   0  0  0  0  0  0
   -3.4456    1.8367   -3.5730 H   0  0  0  0  0  0
   -3.6019    0.2975   -2.1572 C   0  0  0  0  0  0
   -3.3682    1.5305   -2.6136 N   0  0  0  0  0  0
   -2.7244    1.7579    0.9966 C   0  0  0  0  0  0
   -0.9497    2.0883    1.2022 S   0  0  0  0  0  0
   -0.2458    0.5064    0.6625 C   0  0  0  0  0  0
    1.2718    0.4718    0.8720 C   0  0  0  0  0  0
    1.8477   -0.7915    0.3903 N   0  0  0  0  0  0
    1.8712   -1.9630    1.0581 C   0  0  0  0  0  0
    2.4151   -3.0473    0.4629 N   0  0  0  0  0  0
    3.0035   -3.0831   -0.8818 C   0  0  0  0  0  0
    1.3507   -2.0312    2.3056 N   0  3  0  0  0  0
    1.2962   -3.1286    3.0912 C   0  0  0  0  0  0
    1.2473   -4.0956    3.7239 N   0  0  0  0  0  0
   -1.5868    3.8850   -1.7977 H   0  0  0  0  0  0
   -2.9330    4.2942   -0.7342 H   0  0  0  0  0  0
   -3.1809    4.2209   -2.4781 H   0  0  0  0  0  0
   -3.9067   -0.5227   -2.7903 H   0  0  0  0  0  0
   -3.0077    0.9258    1.6419 H   0  0  0  0  0  0
   -3.2845    2.6284    1.3386 H   0  0  0  0  0  0
   -0.7242   -0.2970    1.2231 H   0  0  0  0  0  0
   -0.4804    0.3485   -0.3904 H   0  0  0  0  0  0
    1.7379    1.2897    0.3220 H   0  0  0  0  0  0
    1.5225    0.6163    1.9231 H   0  0  0  0  0  0
    2.2164   -0.7790   -0.5499 H   0  0  0  0  0  0
    3.3566   -4.0885   -1.1113 H   0  0  0  0  0  0
    3.8483   -2.3972   -0.9468 H   0  0  0  0  0  0
    2.2634   -2.7982   -1.6298 H   0  0  0  0  0  0
    2.4231   -3.9169    0.9769 H   0  0  0  0  0  0
    0.9610   -1.1860    2.6976 H   0  0  0  0  0  0
  1 19  1  0  0  0
  1 20  1  0  0  0
  1 21  1  0  0  0
  1  2  1  0  0  0
  2  3  2  0  0  0
  2  7  1  0  0  0
  3  8  1  0  0  0
  3  4  1  0  0  0
  4  6  2  0  0  0
  5  7  1  0  0  0
  6  7  1  0  0  0
  6 22  1  0  0  0
  8  9  1  0  0  0
  8 23  1  0  0  0
  8 24  1  0  0  0
  9 10  1  0  0  0
 10 11  1  0  0  0
 10 25  1  0  0  0
 10 26  1  0  0  0
 11 12  1  0  0  0
 11 27  1  0  0  0
 11 28  1  0  0  0
 12 13  1  0  0  0
 12 29  1  0  0  0
 13 14  1  0  0  0
 13 16  2  0  0  0
 14 15  1  0  0  0
 14 33  1  0  0  0
 15 30  1  0  0  0
 15 31  1  0  0  0
 15 32  1  0  0  0
 16 17  1  0  0  0
 16 34  1  0  0  0
 17 18  3  0  0  0
M  CHG  1  16   1
M  END
> <s_m_entry_id>
9

> <s_m_entry_name>
biosynth_p1.0.sdf.2

> <s_m_Source_Path>
/Users/Sebastito/Downloads

> <s_m_Source_File>
biosynth_p1.0.sdf.gz

> <i_m_Source_File_Index>
2

> <chiral flag>
0

> <version>
0

> <i_m_ct_enhanced_stereo_status>
0

> <s_m_source_file>
ligprep_vs.maegz

> <i_m_source_file_index>
2

> <i_lp_mmshare_version>
37011

> <r_epik_Ionization_Penalty>
2.08309

> <r_epik_Ionization_Penalty_Charging>
2.08309

> <r_epik_Ionization_Penalty_Neutral>
5.53794e-08

> <r_epik_State_Penalty>
2.35058

> <r_epik_Charging_Adjusted_Penalty>
4.43368

> <i_epik_Tot_Q>
1

> <i_epik_Tot_abs_Q>
1

> <s_epik_Chemistry_Notes>
This compound has an imine and may undergo hydrolysis.

> <i_f3d_flags>
0

> <s_lp_Force_Field>
OPLS_2005

> <r_lp_Energy>
5.19863

> <b_lp_Chiralities_Consistent>
1

> <s_lp_Variant>
ZINC18115268-4

$$$$
ZINC18115268
                    3D
 Structure written by MMmdl.
 35 35  0  0  1  0            999 V2000
   -1.1913   -0.9700   -2.8341 C   0  0  0  0  0  0
   -2.3915   -0.4636   -2.1073 C   0  0  0  0  0  0
   -2.5481    0.5815   -1.2260 C   0  0  0  0  0  0
   -3.8729    0.5851   -0.8706 N   0  0  0  0  0  0
   -4.2980    1.2433   -0.2294 H   0  0  0  0  0  0
   -4.5265   -0.4031   -1.4848 C   0  0  0  0  0  0
   -3.6281   -1.0424   -2.2368 N   0  3  0  0  0  0
   -1.5758    1.5779   -0.6848 C   0  0  0  0  0  0
   -1.2232    1.2442    1.0673 S   0  0  0  0  0  0
   -0.3887   -0.3718    1.0007 C   0  0  0  0  0  0
    1.0258   -0.2866    0.4095 C   0  0  0  0  0  0
    1.9260    0.4826    1.2800 N   0  0  0  0  0  0
    3.2268    0.7450    1.0427 C   0  0  0  0  0  0
    3.9245    1.4764    1.9394 N   0  0  0  0  0  0
    3.3942    2.0332    3.1902 C   0  0  0  0  0  0
    3.8048    0.2728   -0.0861 N   0  3  0  0  0  0
    5.0893    0.4547   -0.4620 C   0  0  0  0  0  0
    6.2018    0.6102   -0.7379 N   0  0  0  0  0  0
   -0.6463   -0.1401   -3.2842 H   0  0  0  0  0  0
   -1.4814   -1.6626   -3.6248 H   0  0  0  0  0  0
   -0.5267   -1.4892   -2.1435 H   0  0  0  0  0  0
   -5.5720   -0.6377   -1.3922 H   0  0  0  0  0  0
   -0.6553    1.5600   -1.2675 H   0  0  0  0  0  0
   -1.9974    2.5791   -0.7786 H   0  0  0  0  0  0
   -0.3352   -0.7638    2.0170 H   0  0  0  0  0  0
   -0.9968   -1.0770    0.4349 H   0  0  0  0  0  0
    1.4349   -1.2909    0.2978 H   0  0  0  0  0  0
    1.0079    0.1605   -0.5839 H   0  0  0  0  0  0
    1.5184    0.8480    2.1292 H   0  0  0  0  0  0
    4.1754    2.5784    3.7202 H   0  0  0  0  0  0
    3.0294    1.2360    3.8382 H   0  0  0  0  0  0
    2.5729    2.7200    2.9842 H   0  0  0  0  0  0
    4.8977    1.6648    1.7436 H   0  0  0  0  0  0
   -3.8357   -1.8422   -2.8220 H   0  0  0  0  0  0
    3.2325   -0.2717   -0.7150 H   0  0  0  0  0  0
  1  2  1  0  0  0
  1 19  1  0  0  0
  1 20  1  0  0  0
  1 21  1  0  0  0
  2  7  1  0  0  0
  2  3  2  0  0  0
  3  4  1  0  0  0
  3  8  1  0  0  0
  4  5  1  0  0  0
  4  6  1  0  0  0
  6  7  2  0  0  0
  6 22  1  0  0  0
  7 34  1  0  0  0
  8  9  1  0  0  0
  8 23  1  0  0  0
  8 24  1  0  0  0
  9 10  1  0  0  0
 10 11  1  0  0  0
 10 25  1  0  0  0
 10 26  1  0  0  0
 11 12  1  0  0  0
 11 27  1  0  0  0
 11 28  1  0  0  0
 12 13  1  0  0  0
 12 29  1  0  0  0
 13 14  1  0  0  0
 13 16  2  0  0  0
 14 15  1  0  0  0
 14 33  1  0  0  0
 15 30  1  0  0  0
 15 31  1  0  0  0
 15 32  1  0  0  0
 16 17  1  0  0  0
 16 35  1  0  0  0
 17 18  3  0  0  0
M  CHG  2   7   1  16   1
M  END
> <s_m_entry_id>
9

> <s_m_entry_name>
biosynth_p1.0.sdf.2

> <s_m_Source_Path>
/Users/Sebastito/Downloads

> <s_m_Source_File>
biosynth_p1.0.sdf.gz

> <i_m_Source_File_Index>
2

> <chiral flag>
0

> <version>
0

> <i_m_ct_enhanced_stereo_status>
0

> <s_m_source_file>
ligprep_vs.maegz

> <i_m_source_file_index>
2

> <i_lp_mmshare_version>
37011

> <r_lp_tautomer_probability>
1

> <r_epik_Ionization_Penalty>
2.8626

> <r_epik_Ionization_Penalty_Charging>
1.88551

> <r_epik_Ionization_Penalty_Neutral>
0.977091

> <r_epik_State_Penalty>
2.71174

> <r_epik_Charging_Adjusted_Penalty>
4.59724

> <i_epik_Tot_Q>
2

> <i_epik_Tot_abs_Q>
2

> <s_epik_Chemistry_Notes>
This compound has an imine and may undergo hydrolysis.

> <i_f3d_flags>
0

> <s_lp_Force_Field>
OPLS_2005

> <r_lp_Energy>
11.9512

> <b_lp_Chiralities_Consistent>
1

> <s_lp_Variant>
ZINC18115268-5

$$$$
ZINC18152146
                    3D
 Structure written by MMmdl.
 56 59  0  0  1  0            999 V2000
   -1.6420    0.7704   -5.2733 C   0  0  0  0  0  0
   -1.0761    1.7686   -4.2386 C   0  0  1  0  0  0
   -1.9198    3.0435   -4.2678 C   0  0  0  0  0  0
   -1.6019    4.0538   -5.2060 C   0  0  0  0  0  0
   -2.3465    5.2404   -5.2664 C   0  0  0  0  0  0
   -3.4228    5.4285   -4.3885 C   0  0  0  0  0  0
   -3.7676    4.4320   -3.4557 C   0  0  0  0  0  0
   -3.0277    3.2122   -3.3858 C   0  0  0  0  0  0
   -3.3936    2.1227   -2.4063 C   0  0  0  0  0  0
   -2.4476    0.9759   -2.2509 C   0  0  0  0  0  0
   -1.0362    1.2118   -2.7924 C   0  0  1  0  0  0
   -0.6321    2.0102   -2.1671 H   0  0  0  0  0  0
   -0.0812   -0.0017   -2.6016 C   0  0  0  0  0  0
   -0.3854   -0.8401   -1.3411 C   0  0  1  0  0  0
    0.2569   -1.7223   -1.3800 H   0  0  0  0  0  0
   -0.0251   -0.0549   -0.0418 C   0  0  1  0  0  0
   -0.2689    0.9894   -0.2344 H   0  0  0  0  0  0
   -0.8384   -0.4386    1.2287 C   0  0  0  0  0  0
   -0.4726    0.3233    2.1570 O   0  5  0  0  0  0
   -1.8007   -1.4563    1.1903 C   0  0  0  0  0  0
   -2.4631   -1.8112    2.4658 C   0  0  0  0  0  0
   -3.6195   -2.4739    2.3443 N   0  0  0  0  0  0
   -2.0546   -1.5286    3.5915 O   0  0  0  0  0  0
   -2.1327   -2.1277   -0.0971 C   0  0  0  0  0  0
   -2.6661   -3.2381   -0.1694 O   0  0  0  0  0  0
   -1.8365   -1.3577   -1.4040 C   0  0  1  0  0  0
   -2.8103   -0.1981   -1.6697 C   0  0  0  0  0  0
   -4.0436   -0.4670   -1.2018 O   0  0  0  0  0  0
   -1.9316   -2.2605   -2.4954 O   0  0  0  0  0  0
    1.4624   -0.1332    0.1372 N   0  3  0  0  0  0
    2.1036    1.1318    0.5677 C   0  0  0  0  0  0
    1.9518   -1.3104    0.8965 C   0  0  0  0  0  0
   -4.4266    2.1828   -1.7387 O   0  0  0  0  0  0
   -4.8277    4.7075   -2.6369 O   0  0  0  0  0  0
    0.2695    2.0194   -4.6079 O   0  0  0  0  0  0
   -2.6643    0.4783   -5.0312 H   0  0  0  0  0  0
   -1.0514   -0.1412   -5.3495 H   0  0  0  0  0  0
   -1.6626    1.2126   -6.2702 H   0  0  0  0  0  0
   -0.7801    3.9289   -5.8952 H   0  0  0  0  0  0
   -2.0910    6.0058   -5.9842 H   0  0  0  0  0  0
   -3.9901    6.3468   -4.4350 H   0  0  0  0  0  0
   -0.1284   -0.6647   -3.4627 H   0  0  0  0  0  0
    0.9520    0.3461   -2.5766 H   0  0  0  0  0  0
   -3.9653   -2.7186    1.4277 H   0  0  0  0  0  0
   -4.1333   -2.7393    3.1717 H   0  0  0  0  0  0
    1.8527    1.3888    1.5964 H   0  0  0  0  0  0
    1.8035    1.9587   -0.0768 H   0  0  0  0  0  0
    3.1884    1.0446    0.5020 H   0  0  0  0  0  0
    1.7489   -1.2178    1.9638 H   0  0  0  0  0  0
    3.0299   -1.4159    0.7736 H   0  0  0  0  0  0
    1.4882   -2.2306    0.5407 H   0  0  0  0  0  0
   -5.2066    5.5589   -2.7913 H   0  0  0  0  0  0
    0.2820    2.3253   -5.5018 H   0  0  0  0  0  0
   -2.8103   -2.6079   -2.5172 H   0  0  0  0  0  0
   -4.0149   -1.3202   -0.7966 H   0  0  0  0  0  0
    1.8071   -0.2687   -0.8020 H   0  0  0  0  0  0
  1  2  1  0  0  0
  1 36  1  0  0  0
  1 37  1  0  0  0
  1 38  1  0  0  0
  2 11  1  0  0  0
  2  3  1  0  0  0
  2 35  1  0  0  0
  3  8  2  0  0  0
  3  4  1  0  0  0
  4  5  2  0  0  0
  4 39  1  0  0  0
  5  6  1  0  0  0
  5 40  1  0  0  0
  6  7  2  0  0  0
  6 41  1  0  0  0
  7  8  1  0  0  0
  7 34  1  0  0  0
  8  9  1  0  0  0
  9 10  1  0  0  0
  9 33  2  0  0  0
 10 27  2  0  0  0
 10 11  1  0  0  0
 11 12  1  0  0  0
 11 13  1  0  0  0
 13 14  1  0  0  0
 13 42  1  0  0  0
 13 43  1  0  0  0
 14 15  1  0  0  0
 14 26  1  0  0  0
 14 16  1  0  0  0
 16 17  1  0  0  0
 16 18  1  0  0  0
 16 30  1  0  0  0
 18 19  1  0  0  0
 18 20  2  0  0  0
 20 21  1  0  0  0
 20 24  1  0  0  0
 21 22  1  0  0  0
 21 23  2  0  0  0
 22 44  1  0  0  0
 22 45  1  0  0  0
 24 25  2  0  0  0
 24 26  1  0  0  0
 26 27  1  0  0  0
 26 29  1  0  0  0
 27 28  1  0  0  0
 28 55  1  0  0  0
 29 54  1  0  0  0
 30 31  1  0  0  0
 30 32  1  0  0  0
 30 56  1  0  0  0
 31 46  1  0  0  0
 31 47  1  0  0  0
 31 48  1  0  0  0
 32 49  1  0  0  0
 32 50  1  0  0  0
 32 51  1  0  0  0
 34 52  1  0  0  0
 35 53  1  0  0  0
M  CHG  2  19  -1  30   1
M  END
> <s_m_entry_id>
10

> <s_m_entry_name>
biosynth_p1.0.sdf.3

> <s_m_Source_Path>
/Users/Sebastito/Downloads

> <s_m_Source_File>
biosynth_p1.0.sdf.gz

> <i_m_Source_File_Index>
3

> <chiral flag>
1

> <version>
0

> <i_m_ct_enhanced_stereo_status>
0

> <s_m_source_file>
ligprep_vs.maegz

> <i_m_source_file_index>
3

> <i_lp_mmshare_version>
37011

> <r_epik_Ionization_Penalty>
0.163217

> <r_epik_Ionization_Penalty_Charging>
0.126466

> <r_epik_Ionization_Penalty_Neutral>
0.0367509

> <r_epik_State_Penalty>
0.13962

> <r_epik_Charging_Adjusted_Penalty>
0.266086

> <i_epik_Tot_Q>
0

> <i_epik_Tot_abs_Q>
2

> <i_f3d_flags>
0

> <s_lp_Force_Field>
OPLS_2005

> <r_lp_Energy>
46.2877

> <b_lp_Chiralities_Consistent>
1

> <s_lp_Variant>
ZINC18152146-1

$$$$
ZINC18152146
                    3D
 Structure written by MMmdl.
 55 58  0  0  1  0            999 V2000
   -1.1919    4.0695    3.8233 C   0  0  0  0  0  0
   -1.0172    2.5356    3.7992 C   0  0  1  0  0  0
   -2.0600    1.8942    4.7131 C   0  0  0  0  0  0
   -1.7544    1.6392    6.0712 C   0  0  0  0  0  0
   -2.7077    1.0601    6.9241 C   0  0  0  0  0  0
   -3.9780    0.7303    6.4277 C   0  0  0  0  0  0
   -4.3055    0.9857    5.0823 C   0  0  0  0  0  0
   -3.3512    1.5844    4.2104 C   0  0  0  0  0  0
   -3.6784    1.8840    2.7788 C   0  0  0  0  0  0
   -2.5446    1.9025    1.8009 C   0  0  0  0  0  0
   -1.1249    1.9218    2.3738 C   0  0  1  0  0  0
   -0.8685    0.8666    2.4808 H   0  0  0  0  0  0
   -0.1438    2.5465    1.3524 C   0  0  0  0  0  0
   -0.2047    1.8405   -0.0142 C   0  0  1  0  0  0
    0.4426    2.4443   -0.6541 H   0  0  0  0  0  0
    0.4446    0.4151    0.0730 C   0  0  1  0  0  0
    0.8171    0.3242    1.0952 H   0  0  0  0  0  0
   -0.5198   -0.7766   -0.1843 C   0  0  0  0  0  0
   -0.1175   -1.7543    0.4919 O   0  5  0  0  0  0
   -1.6232   -0.6065   -1.0256 C   0  0  0  0  0  0
   -2.4594   -1.7851   -1.3337 C   0  0  0  0  0  0
   -3.6252   -1.5095   -1.9308 N   0  0  0  0  0  0
   -2.1816   -2.9548   -1.0726 O   0  0  0  0  0  0
   -1.8981    0.7439   -1.5734 C   0  0  0  0  0  0
   -2.3876    0.9480   -2.6876 O   0  0  0  0  0  0
   -1.6427    1.9289   -0.6177 C   0  0  1  0  0  0
   -2.7493    1.9497    0.4574 C   0  0  0  0  0  0
   -3.9640    1.9892   -0.1238 O   0  0  0  0  0  0
   -1.7133    3.1471   -1.3452 O   0  0  0  0  0  0
    1.6733    0.3921   -0.7500 N   0  0  0  0  0  0
    1.4305    0.2727   -2.1847 C   0  0  0  0  0  0
    2.6153   -0.6495   -0.3549 C   0  0  0  0  0  0
   -4.8377    2.1296    2.4422 O   0  0  0  0  0  0
   -5.5552    0.6208    4.6634 O   0  0  0  0  0  0
    0.3043    2.2861    4.2483 O   0  0  0  0  0  0
   -2.1594    4.3710    3.4215 H   0  0  0  0  0  0
   -0.4222    4.5817    3.2463 H   0  0  0  0  0  0
   -1.1308    4.4541    4.8421 H   0  0  0  0  0  0
   -0.7859    1.8879    6.4784 H   0  0  0  0  0  0
   -2.4632    0.8662    7.9581 H   0  0  0  0  0  0
   -4.7048    0.2769    7.0858 H   0  0  0  0  0  0
   -0.3835    3.5995    1.2038 H   0  0  0  0  0  0
    0.8802    2.5240    1.7267 H   0  0  0  0  0  0
   -3.8602   -0.5530   -2.1524 H   0  0  0  0  0  0
   -4.2574   -2.2602   -2.1667 H   0  0  0  0  0  0
    2.3686    0.3449   -2.7358 H   0  0  0  0  0  0
    0.7842    1.0739   -2.5416 H   0  0  0  0  0  0
    0.9671   -0.6816   -2.4380 H   0  0  0  0  0  0
    3.5618   -0.5211   -0.8809 H   0  0  0  0  0  0
    2.2410   -1.6470   -0.5857 H   0  0  0  0  0  0
    2.8246   -0.5979    0.7138 H   0  0  0  0  0  0
   -6.0759    0.2269    5.3462 H   0  0  0  0  0  0
    0.4118    2.6840    5.0983 H   0  0  0  0  0  0
   -2.5770    3.2200   -1.7210 H   0  0  0  0  0  0
   -3.8314    1.9503   -1.0586 H   0  0  0  0  0  0
  1  2  1  0  0  0
  1 36  1  0  0  0
  1 37  1  0  0  0
  1 38  1  0  0  0
  2 11  1  0  0  0
  2  3  1  0  0  0
  2 35  1  0  0  0
  3  8  2  0  0  0
  3  4  1  0  0  0
  4  5  2  0  0  0
  4 39  1  0  0  0
  5  6  1  0  0  0
  5 40  1  0  0  0
  6  7  2  0  0  0
  6 41  1  0  0  0
  7  8  1  0  0  0
  7 34  1  0  0  0
  8  9  1  0  0  0
  9 10  1  0  0  0
  9 33  2  0  0  0
 10 27  2  0  0  0
 10 11  1  0  0  0
 11 12  1  0  0  0
 11 13  1  0  0  0
 13 14  1  0  0  0
 13 42  1  0  0  0
 13 43  1  0  0  0
 14 15  1  0  0  0
 14 26  1  0  0  0
 14 16  1  0  0  0
 16 17  1  0  0  0
 16 18  1  0  0  0
 16 30  1  0  0  0
 18 19  1  0  0  0
 18 20  2  0  0  0
 20 21  1  0  0  0
 20 24  1  0  0  0
 21 22  1  0  0  0
 21 23  2  0  0  0
 22 44  1  0  0  0
 22 45  1  0  0  0
 24 25  2  0  0  0
 24 26  1  0  0  0
 26 27  1  0  0  0
 26 29  1  0  0  0
 27 28  1  0  0  0
 28 55  1  0  0  0
 29 54  1  0  0  0
 30 31  1  0  0  0
 30 32  1  0  0  0
 31 46  1  0  0  0
 31 47  1  0  0  0
 31 48  1  0  0  0
 32 49  1  0  0  0
 32 50  1  0  0  0
 32 51  1  0  0  0
 34 52  1  0  0  0
 35 53  1  0  0  0
M  CHG  1  19  -1
M  END
> <s_m_entry_id>
10

> <s_m_entry_name>
biosynth_p1.0.sdf.3

> <s_m_Source_Path>
/Users/Sebastito/Downloads

> <s_m_Source_File>
biosynth_p1.0.sdf.gz

> <i_m_Source_File_Index>
3

> <chiral flag>
1

> <version>
0

> <i_m_ct_enhanced_stereo_status>
0

> <s_m_source_file>
ligprep_vs.maegz

> <i_m_source_file_index>
3

> <i_lp_mmshare_version>
37011

> <r_epik_Ionization_Penalty>
0.998124

> <r_epik_Ionization_Penalty_Charging>
0.004099

> <r_epik_Ionization_Penalty_Neutral>
0.994025

> <r_epik_State_Penalty>
1.0481

> <r_epik_Charging_Adjusted_Penalty>
1.05219

> <i_epik_Tot_Q>
-1

> <i_epik_Tot_abs_Q>
1

> <i_f3d_flags>
0

> <s_lp_Force_Field>
OPLS_2005

> <r_lp_Energy>
60.5096

> <b_lp_Chiralities_Consistent>
1

> <s_lp_Variant>
ZINC18152146-2

$$$$
ZINC18152146
                    3D
 Structure written by MMmdl.
 55 58  0  0  1  0            999 V2000
   -0.9858    0.8728   -5.4235 C   0  0  0  0  0  0
   -0.3288    1.7870   -4.3654 C   0  0  1  0  0  0
   -0.9435    3.1831   -4.4663 C   0  0  0  0  0  0
   -0.3880    4.1064   -5.3832 C   0  0  0  0  0  0
   -0.9117    5.4003   -5.5090 C   0  0  0  0  0  0
   -2.0027    5.7840   -4.7184 C   0  0  0  0  0  0
   -2.5844    4.8794   -3.8097 C   0  0  0  0  0  0
   -2.0725    3.5496   -3.6741 C   0  0  0  0  0  0
   -2.6876    2.5431   -2.7248 C   0  0  0  0  0  0
   -1.9418    1.2705   -2.4719 C   0  0  0  0  0  0
   -0.4766    1.2685   -2.9129 C   0  0  1  0  0  0
    0.0040    2.0107   -2.2727 H   0  0  0  0  0  0
    0.2603   -0.0737   -2.6356 C   0  0  0  0  0  0
   -0.2533   -0.8170   -1.3829 C   0  0  1  0  0  0
    0.2442   -1.7886   -1.3583 H   0  0  0  0  0  0
    0.1365   -0.0578   -0.0763 C   0  0  1  0  0  0
    0.0544    1.0050   -0.3019 H   0  0  0  0  0  0
   -0.7974   -0.2896    1.1481 C   0  0  0  0  0  0
   -0.3733    0.4315    2.0846 O   0  5  0  0  0  0
   -1.8986   -1.1560    1.0560 C   0  0  0  0  0  0
   -2.7711   -1.4344    2.2190 C   0  0  0  0  0  0
   -2.2326   -1.2028    3.4210 N   0  0  0  0  0  0
   -3.9145   -1.8858    2.1554 O   0  0  0  0  0  0
   -2.2625   -1.7799   -0.2420 C   0  0  0  0  0  0
   -2.9838   -2.7772   -0.3320 O   0  0  0  0  0  0
   -1.7595   -1.1044   -1.5385 C   0  0  1  0  0  0
   -2.5207    0.1833   -1.8951 C   0  0  0  0  0  0
   -3.8105    0.1167   -1.5158 O   0  0  0  0  0  0
   -1.9230   -2.0129   -2.6176 O   0  0  0  0  0  0
    1.5848   -0.3400    0.1947 N   0  3  0  0  0  0
    2.3741    0.8344    0.6351 C   0  0  0  0  0  0
    1.8592   -1.5519    1.0054 C   0  0  0  0  0  0
   -3.7605    2.7617   -2.1613 O   0  0  0  0  0  0
   -3.6396    5.3614   -3.0841 O   0  5  0  0  0  0
    1.0609    1.7999   -4.6497 O   0  0  0  0  0  0
   -2.0574    0.7673   -5.2521 H   0  0  0  0  0  0
   -0.5567   -0.1278   -5.4434 H   0  0  0  0  0  0
   -0.8615    1.2870   -6.4248 H   0  0  0  0  0  0
    0.4496    3.8305   -6.0062 H   0  0  0  0  0  0
   -0.4761    6.0979   -6.2086 H   0  0  0  0  0  0
   -2.3986    6.7849   -4.8145 H   0  0  0  0  0  0
    0.1638   -0.7442   -3.4868 H   0  0  0  0  0  0
    1.3316    0.1082   -2.5461 H   0  0  0  0  0  0
   -1.3001   -0.8192    3.4841 H   0  0  0  0  0  0
   -2.7694   -1.3839    4.2565 H   0  0  0  0  0  0
    2.1025    1.1579    1.6395 H   0  0  0  0  0  0
    2.2339    1.6738   -0.0466 H   0  0  0  0  0  0
    3.4372    0.5924    0.6401 H   0  0  0  0  0  0
    1.6276   -1.3953    2.0592 H   0  0  0  0  0  0
    2.9137   -1.8187    0.9348 H   0  0  0  0  0  0
    1.2791   -2.4044    0.6517 H   0  0  0  0  0  0
    1.3836    0.9130   -4.6110 H   0  0  0  0  0  0
   -1.6412   -1.5880   -3.4127 H   0  0  0  0  0  0
   -3.9449   -0.7265   -1.1097 H   0  0  0  0  0  0
    1.9590   -0.5500   -0.7190 H   0  0  0  0  0  0
  1  2  1  0  0  0
  1 36  1  0  0  0
  1 37  1  0  0  0
  1 38  1  0  0  0
  2 11  1  0  0  0
  2  3  1  0  0  0
  2 35  1  0  0  0
  3  8  2  0  0  0
  3  4  1  0  0  0
  4  5  2  0  0  0
  4 39  1  0  0  0
  5  6  1  0  0  0
  5 40  1  0  0  0
  6  7  2  0  0  0
  6 41  1  0  0  0
  7  8  1  0  0  0
  7 34  1  0  0  0
  8  9  1  0  0  0
  9 10  1  0  0  0
  9 33  2  0  0  0
 10 27  2  0  0  0
 10 11  1  0  0  0
 11 12  1  0  0  0
 11 13  1  0  0  0
 13 14  1  0  0  0
 13 42  1  0  0  0
 13 43  1  0  0  0
 14 15  1  0  0  0
 14 26  1  0  0  0
 14 16  1  0  0  0
 16 17  1  0  0  0
 16 18  1  0  0  0
 16 30  1  0  0  0
 18 19  1  0  0  0
 18 20  2  0  0  0
 20 21  1  0  0  0
 20 24  1  0  0  0
 21 22  1  0  0  0
 21 23  2  0  0  0
 22 44  1  0  0  0
 22 45  1  0  0  0
 24 25  2  0  0  0
 24 26  1  0  0  0
 26 27  1  0  0  0
 26 29  1  0  0  0
 27 28  1  0  0  0
 28 54  1  0  0  0
 29 53  1  0  0  0
 30 31  1  0  0  0
 30 32  1  0  0  0
 30 55  1  0  0  0
 31 46  1  0  0  0
 31 47  1  0  0  0
 31 48  1  0  0  0
 32 49  1  0  0  0
 32 50  1  0  0  0
 32 51  1  0  0  0
 35 52  1  0  0  0
M  CHG  3  19  -1  30   1  34  -1
M  END
> <s_m_entry_id>
10

> <s_m_entry_name>
biosynth_p1.0.sdf.3

> <s_m_Source_Path>
/Users/Sebastito/Downloads

> <s_m_Source_File>
biosynth_p1.0.sdf.gz

> <i_m_Source_File_Index>
3

> <chiral flag>
1

> <version>
0

> <i_m_ct_enhanced_stereo_status>
0

> <s_m_source_file>
ligprep_vs.maegz

> <i_m_source_file_index>
3

> <i_lp_mmshare_version>
37011

> <r_epik_Ionization_Penalty>
2.19324

> <r_epik_Ionization_Penalty_Charging>
2.17544

> <r_epik_Ionization_Penalty_Neutral>
0.017797

> <r_epik_State_Penalty>
2.30582

> <r_epik_Charging_Adjusted_Penalty>
4.48126

> <i_epik_Tot_Q>
-1

> <i_epik_Tot_abs_Q>
3

> <i_f3d_flags>
0

> <s_lp_Force_Field>
OPLS_2005

> <r_lp_Energy>
50.5553

> <b_lp_Chiralities_Consistent>
1

> <s_lp_Variant>
ZINC18152146-3

$$$$
ZINC18152146
                    3D
 Structure written by MMmdl.
 55 58  0  0  1  0            999 V2000
   -0.7550    0.7709   -4.5092 C   0  0  0  0  0  0
   -2.1791    0.2205   -4.2872 C   0  0  1  0  0  0
   -2.6694   -0.4214   -5.5877 C   0  0  0  0  0  0
   -3.0808    0.4310   -6.6398 C   0  0  0  0  0  0
   -3.5410   -0.0916   -7.8571 C   0  0  0  0  0  0
   -3.5898   -1.4803   -8.0390 C   0  0  0  0  0  0
   -3.1770   -2.3503   -7.0121 C   0  0  0  0  0  0
   -2.7076   -1.8346   -5.7649 C   0  0  0  0  0  0
   -2.2454   -2.7485   -4.6616 C   0  0  0  0  0  0
   -1.6618   -2.1371   -3.4398 C   0  0  0  0  0  0
   -2.2700   -0.7774   -3.0950 C   0  0  1  0  0  0
   -3.3350   -0.9782   -2.9569 H   0  0  0  0  0  0
   -1.7857   -0.2165   -1.7381 C   0  0  0  0  0  0
   -0.3245   -0.5785   -1.3947 C   0  0  1  0  0  0
    0.3012   -0.1912   -2.1957 H   0  0  0  0  0  0
    0.1111    0.1067   -0.0726 C   0  0  1  0  0  0
   -0.2281    1.1442   -0.1430 H   0  0  0  0  0  0
   -0.5668   -0.5433    1.1586 C   0  0  0  0  0  0
   -0.7016    0.3600    2.0219 O   0  5  0  0  0  0
   -0.9797   -1.8884    1.1149 C   0  0  0  0  0  0
   -1.6593   -2.4957    2.2810 C   0  0  0  0  0  0
   -1.3139   -1.9925    3.4716 N   0  0  0  0  0  0
   -2.4537   -3.4345    2.2378 O   0  0  0  0  0  0
   -0.8322   -2.7187   -0.1264 C   0  0  0  0  0  0
   -1.2078   -3.8919   -0.1875 O   0  0  0  0  0  0
   -0.1291   -2.1129   -1.3688 C   0  0  1  0  0  0
   -0.6672   -2.7671   -2.6856 C   0  0  0  0  0  0
   -0.0484   -3.8362   -2.9228 O   0  5  0  0  0  0
    1.2658   -2.3637   -1.2318 O   0  0  0  0  0  0
    1.6103    0.1777    0.0104 N   0  3  0  0  0  0
    2.1674    1.3642   -0.6802 C   0  0  0  0  0  0
    2.2343   -0.0047    1.3448 C   0  0  0  0  0  0
   -2.3551   -3.9727   -4.7389 O   0  0  0  0  0  0
   -3.2476   -3.6881   -7.2872 O   0  0  0  0  0  0
   -2.9841    1.3364   -3.9436 O   0  0  0  0  0  0
   -0.0459   -0.0338   -4.7069 H   0  0  0  0  0  0
   -0.3951    1.3348   -3.6494 H   0  0  0  0  0  0
   -0.7191    1.4507   -5.3610 H   0  0  0  0  0  0
   -3.0439    1.5038   -6.5208 H   0  0  0  0  0  0
   -3.8539    0.5718   -8.6498 H   0  0  0  0  0  0
   -3.9429   -1.8802   -8.9783 H   0  0  0  0  0  0
   -1.9180    0.8643   -1.6980 H   0  0  0  0  0  0
   -2.4485   -0.5983   -0.9613 H   0  0  0  0  0  0
   -0.6714   -1.2143    3.5147 H   0  0  0  0  0  0
   -1.7201   -2.3699    4.3151 H   0  0  0  0  0  0
    1.9092    2.2796   -0.1461 H   0  0  0  0  0  0
    1.7901    1.4481   -1.6992 H   0  0  0  0  0  0
    3.2543    1.3002   -0.7389 H   0  0  0  0  0  0
    1.9614    0.8019    2.0257 H   0  0  0  0  0  0
    3.3210   -0.0100    1.2558 H   0  0  0  0  0  0
    1.9530   -0.9586    1.7920 H   0  0  0  0  0  0
   -3.5687   -3.8727   -8.1560 H   0  0  0  0  0  0
   -2.9220    1.9738   -4.6379 H   0  0  0  0  0  0
    1.4007   -3.2851   -1.3998 H   0  0  0  0  0  0
    1.9209   -0.6258   -0.5188 H   0  0  0  0  0  0
  1  2  1  0  0  0
  1 36  1  0  0  0
  1 37  1  0  0  0
  1 38  1  0  0  0
  2 11  1  0  0  0
  2  3  1  0  0  0
  2 35  1  0  0  0
  3  8  2  0  0  0
  3  4  1  0  0  0
  4  5  2  0  0  0
  4 39  1  0  0  0
  5  6  1  0  0  0
  5 40  1  0  0  0
  6  7  2  0  0  0
  6 41  1  0  0  0
  7  8  1  0  0  0
  7 34  1  0  0  0
  8  9  1  0  0  0
  9 10  1  0  0  0
  9 33  2  0  0  0
 10 27  2  0  0  0
 10 11  1  0  0  0
 11 12  1  0  0  0
 11 13  1  0  0  0
 13 14  1  0  0  0
 13 42  1  0  0  0
 13 43  1  0  0  0
 14 15  1  0  0  0
 14 26  1  0  0  0
 14 16  1  0  0  0
 16 17  1  0  0  0
 16 18  1  0  0  0
 16 30  1  0  0  0
 18 19  1  0  0  0
 18 20  2  0  0  0
 20 21  1  0  0  0
 20 24  1  0  0  0
 21 22  1  0  0  0
 21 23  2  0  0  0
 22 44  1  0  0  0
 22 45  1  0  0  0
 24 25  2  0  0  0
 24 26  1  0  0  0
 26 27  1  0  0  0
 26 29  1  0  0  0
 27 28  1  0  0  0
 29 54  1  0  0  0
 30 31  1  0  0  0
 30 32  1  0  0  0
 30 55  1  0  0  0
 31 46  1  0  0  0
 31 47  1  0  0  0
 31 48  1  0  0  0
 32 49  1  0  0  0
 32 50  1  0  0  0
 32 51  1  0  0  0
 34 52  1  0  0  0
 35 53  1  0  0  0
M  CHG  3  19  -1  28  -1  30   1
M  END
> <s_m_entry_id>
10

> <s_m_entry_name>
biosynth_p1.0.sdf.3

> <s_m_Source_Path>
/Users/Sebastito/Downloads

> <s_m_Source_File>
biosynth_p1.0.sdf.gz

> <i_m_Source_File_Index>
3

> <chiral flag>
1

> <version>
0

> <i_m_ct_enhanced_stereo_status>
0

> <s_m_source_file>
ligprep_vs.maegz

> <i_m_source_file_index>
3

> <i_lp_mmshare_version>
37011

> <r_epik_Ionization_Penalty>
2.09369

> <r_epik_Ionization_Penalty_Charging>
2.09293

> <r_epik_Ionization_Penalty_Neutral>
0.000760054

> <r_epik_State_Penalty>
2.34734

> <r_epik_Charging_Adjusted_Penalty>
4.44027

> <i_epik_Tot_Q>
-1

> <i_epik_Tot_abs_Q>
3

> <i_f3d_flags>
0

> <s_lp_Force_Field>
OPLS_2005

> <r_lp_Energy>
53.539

> <b_lp_Chiralities_Consistent>
1

> <s_lp_Variant>
ZINC18152146-4

$$$$
ZINC01713574
                    3D
 Structure written by MMmdl.
 34 36  0  0  1  0            999 V2000
   -0.5572    4.7876   -2.3523 C   0  0  0  0  0  0
   -1.3869    5.8353   -2.4064 N   0  0  0  0  0  0
   -2.6250    5.7339   -1.8676 C   0  0  0  0  0  0
   -3.0009    4.5091   -1.2600 C   0  0  0  0  0  0
   -2.0188    3.4805   -1.2802 C   0  0  0  0  0  0
   -0.7698    3.5799   -1.8232 N   0  0  0  0  0  0
   -2.5986    2.3972   -0.6518 N   0  0  0  0  0  0
   -3.8557    2.8268   -0.2867 C   0  0  0  0  0  0
   -4.1483    4.0550   -0.6231 N   0  0  0  0  0  0
   -1.9770    1.0620   -0.4054 C   0  0  1  0  0  0
   -2.6375    0.5413    0.2906 H   0  0  0  0  0  0
   -1.7373    0.3017   -1.7032 C   0  0  0  0  0  0
   -0.5647   -0.5913   -1.3224 C   0  0  1  0  0  0
    0.1661   -0.6237   -2.1315 H   0  0  0  0  0  0
    0.0128    0.0450   -0.0381 C   0  0  2  0  0  0
   -0.1689   -0.6060    0.8194 H   0  0  0  0  0  0
   -0.7226    1.2505    0.1491 O   0  0  0  0  0  0
    1.5073    0.3729   -0.1373 C   0  0  0  0  0  0
    2.0012    0.6617    1.1598 O   0  0  0  0  0  0
    3.6322    0.6103    1.3145 P   0  0  0  0  0  0
    3.9215    1.1393    2.7049 O   0  0  0  0  0  0
    4.0203   -0.8463    1.1494 O   0  5  0  0  0  0
    4.1925    1.4985    0.2202 O   0  5  0  0  0  0
   -1.0186   -1.9052   -1.0615 O   0  0  0  0  0  0
   -3.4374    6.7980   -1.9341 N   0  0  0  0  0  0
    0.4158    4.9359   -2.7969 H   0  0  0  0  0  0
   -4.5562    2.1945    0.2391 H   0  0  0  0  0  0
   -2.6347   -0.2288   -2.0245 H   0  0  0  0  0  0
   -1.4357    0.9938   -2.4896 H   0  0  0  0  0  0
    2.0382   -0.4860   -0.5506 H   0  0  0  0  0  0
    1.6767    1.2159   -0.8083 H   0  0  0  0  0  0
   -0.2811   -2.4204   -0.7705 H   0  0  0  0  0  0
   -4.3642    6.7483   -1.5360 H   0  0  0  0  0  0
   -3.1205    7.6469   -2.3795 H   0  0  0  0  0  0
  1  6  2  0  0  0
  1  2  1  0  0  0
  1 26  1  0  0  0
  2  3  2  0  0  0
  3  4  1  0  0  0
  3 25  1  0  0  0
  4  9  1  0  0  0
  4  5  2  0  0  0
  5  6  1  0  0  0
  5  7  1  0  0  0
  7  8  1  0  0  0
  7 10  1  0  0  0
  8  9  2  0  0  0
  8 27  1  0  0  0
 10 11  1  0  0  0
 10 17  1  0  0  0
 10 12  1  0  0  0
 12 13  1  0  0  0
 12 28  1  0  0  0
 12 29  1  0  0  0
 13 14  1  0  0  0
 13 15  1  0  0  0
 13 24  1  0  0  0
 15 16  1  0  0  0
 15 17  1  0  0  0
 15 18  1  0  0  0
 18 19  1  0  0  0
 18 30  1  0  0  0
 18 31  1  0  0  0
 19 20  1  0  0  0
 20 21  2  0  0  0
 20 22  1  0  0  0
 20 23  1  0  0  0
 24 32  1  0  0  0
 25 33  1  0  0  0
 25 34  1  0  0  0
M  CHG  2  22  -1  23  -1
M  END
> <s_m_entry_id>
11

> <s_m_entry_name>
biosynth_p1.0.sdf.4

> <s_m_Source_Path>
/Users/Sebastito/Downloads

> <s_m_Source_File>
biosynth_p1.0.sdf.gz

> <i_m_Source_File_Index>
4

> <chiral flag>
1

> <version>
0

> <i_m_ct_enhanced_stereo_status>
0

> <s_m_source_file>
ligprep_vs.maegz

> <i_m_source_file_index>
4

> <i_lp_mmshare_version>
37011

> <r_lp_tautomer_probability>
0.999997

> <r_epik_Ionization_Penalty>
0.10522

> <r_epik_Ionization_Penalty_Charging>
0.104506

> <r_epik_Ionization_Penalty_Neutral>
0.000714179

> <r_epik_State_Penalty>
0.0944069

> <r_epik_Charging_Adjusted_Penalty>
0.198912

> <i_epik_Tot_Q>
-2

> <i_epik_Tot_abs_Q>
2

> <s_epik_Chemistry_Notes>
This compound contains an acetal/aminal-like group ( X-CH(R)-Y where X, Y are N, S, or O) that may be acid/base labile, releasing an aldehyde.

> <i_f3d_flags>
0

> <s_lp_Force_Field>
OPLS_2005

> <r_lp_Energy>
25.3588

> <b_lp_Chiralities_Consistent>
1

> <s_lp_Variant>
ZINC01713574-1

$$$$
ZINC01713574
                    3D
 Structure written by MMmdl.
 35 37  0  0  1  0            999 V2000
   -0.1446    4.7208   -1.7896 C   0  0  0  0  0  0
   -0.9375    5.7813   -1.9786 N   0  0  0  0  0  0
   -2.2704    5.6616   -1.7726 C   0  0  0  0  0  0
   -2.7830    4.4046   -1.3627 C   0  0  0  0  0  0
   -1.8236    3.3674   -1.2015 C   0  0  0  0  0  0
   -0.4794    3.4868   -1.4052 N   0  0  0  0  0  0
   -2.5375    2.2541   -0.8077 N   0  0  0  0  0  0
   -3.8483    2.6740   -0.7487 C   0  0  0  0  0  0
   -4.0523    3.9248   -1.0672 N   0  0  0  0  0  0
   -1.9930    0.8992   -0.4946 C   0  0  1  0  0  0
   -2.8109    0.3443   -0.0319 H   0  0  0  0  0  0
   -1.4229    0.2172   -1.7324 C   0  0  0  0  0  0
   -0.4541   -0.7646   -1.0996 C   0  0  1  0  0  0
    0.3943   -0.9657   -1.7511 H   0  0  0  0  0  0
   -0.0519   -0.0750    0.2211 C   0  0  2  0  0  0
   -0.2037   -0.7527    1.0628 H   0  0  0  0  0  0
   -0.9318    1.0365    0.3903 O   0  0  0  0  0  0
    1.3948    0.4415    0.2674 C   0  0  0  0  0  0
    1.6362    1.3365   -0.8012 O   0  0  0  0  0  0
    2.9067    1.0973   -1.9040 P   0  0  0  0  0  0
    4.1833    1.3378   -1.1964 O   0  0  0  0  0  0
    2.6881   -0.1814   -2.6153 O   0  5  0  0  0  0
    2.6728    2.3621   -3.0044 O   0  0  0  0  0  0
   -1.1046   -1.9930   -0.8354 O   0  0  0  0  0  0
   -3.0440    6.7389   -1.9659 N   0  0  0  0  0  0
    0.9080    4.8803   -1.9721 H   0  0  0  0  0  0
   -4.6561    2.0172   -0.4605 H   0  0  0  0  0  0
   -2.2056   -0.2384   -2.3399 H   0  0  0  0  0  0
   -0.8770    0.9410   -2.3379 H   0  0  0  0  0  0
    1.5830    0.9598    1.2077 H   0  0  0  0  0  0
    2.0926   -0.3957    0.2214 H   0  0  0  0  0  0
   -0.4776   -2.5830   -0.4453 H   0  0  0  0  0  0
   -4.0412    6.6741   -1.8190 H   0  0  0  0  0  0
   -2.6297    7.6130   -2.2555 H   0  0  0  0  0  0
    3.4859    2.8377   -3.0703 H   0  0  0  0  0  0
  1  6  2  0  0  0
  1  2  1  0  0  0
  1 26  1  0  0  0
  2  3  2  0  0  0
  3  4  1  0  0  0
  3 25  1  0  0  0
  4  9  1  0  0  0
  4  5  2  0  0  0
  5  6  1  0  0  0
  5  7  1  0  0  0
  7  8  1  0  0  0
  7 10  1  0  0  0
  8  9  2  0  0  0
  8 27  1  0  0  0
 10 11  1  0  0  0
 10 17  1  0  0  0
 10 12  1  0  0  0
 12 13  1  0  0  0
 12 28  1  0  0  0
 12 29  1  0  0  0
 13 14  1  0  0  0
 13 15  1  0  0  0
 13 24  1  0  0  0
 15 16  1  0  0  0
 15 17  1  0  0  0
 15 18  1  0  0  0
 18 19  1  0  0  0
 18 30  1  0  0  0
 18 31  1  0  0  0
 19 20  1  0  0  0
 20 21  2  0  0  0
 20 22  1  0  0  0
 20 23  1  0  0  0
 23 35  1  0  0  0
 24 32  1  0  0  0
 25 33  1  0  0  0
 25 34  1  0  0  0
M  CHG  1  22  -1
M  END
> <s_m_entry_id>
11

> <s_m_entry_name>
biosynth_p1.0.sdf.4

> <s_m_Source_Path>
/Users/Sebastito/Downloads

> <s_m_Source_File>
biosynth_p1.0.sdf.gz

> <i_m_Source_File_Index>
4

> <chiral flag>
1

> <version>
0

> <i_m_ct_enhanced_stereo_status>
0

> <s_m_source_file>
ligprep_vs.maegz

> <i_m_source_file_index>
4

> <i_lp_mmshare_version>
37011

> <r_lp_tautomer_probability>
0.999997

> <r_epik_Ionization_Penalty>
1.08034

> <r_epik_Ionization_Penalty_Charging>
0.000127956

> <r_epik_Ionization_Penalty_Neutral>
1.08021

> <r_epik_State_Penalty>
1.1348

> <r_epik_Charging_Adjusted_Penalty>
1.13493

> <i_epik_Tot_Q>
-1

> <i_epik_Tot_abs_Q>
1

> <s_epik_Chemistry_Notes>
This compound contains an acetal/aminal-like group ( X-CH(R)-Y where X, Y are N, S, or O) that may be acid/base labile, releasing an aldehyde.

> <i_f3d_flags>
0

> <s_lp_Force_Field>
OPLS_2005

> <r_lp_Energy>
20.6423

> <b_lp_Chiralities_Consistent>
1

> <s_lp_Variant>
ZINC01713574-2

$$$$
ZINC04530702
                    3D
 Structure written by MMmdl.
 29 30  0  0  1  0            999 V2000
   -1.8391   -3.9564    0.0000 C   0  0  0  0  0  0
   -0.4416   -3.7957    0.0000 C   0  0  0  0  0  0
    0.1230   -2.5051    0.0000 C   0  0  0  0  0  0
   -0.7059   -1.3558    0.0000 C   0  0  0  0  0  0
   -2.1102   -1.5325    0.0000 C   0  0  0  0  0  0
   -2.6731   -2.8236    0.0000 C   0  0  0  0  0  0
   -0.1431    0.0281   -0.0000 C   0  0  0  0  0  0
    1.4016    0.1392   -0.0000 C   0  0  0  0  0  0
    2.0211    1.5584   -0.0000 C   0  0  0  0  0  0
    1.3252    2.5751   -0.0000 O   0  0  0  0  0  0
    3.5137    1.6278    0.0000 C   0  0  0  0  0  0
    4.1484    2.8929    0.0000 C   0  0  0  0  0  0
    5.5530    2.9932    0.0000 C   0  0  0  0  0  0
    6.3432    1.8294    0.0000 C   0  0  0  0  0  0
    5.7258    0.5653    0.0000 C   0  0  0  0  0  0
    4.3208    0.4633    0.0000 C   0  0  0  0  0  0
   -0.8695    1.0232   -0.0000 O   0  0  0  0  0  0
   -2.2708   -4.9465    0.0000 H   0  0  0  0  0  0
    0.2002   -4.6644    0.0000 H   0  0  0  0  0  0
    1.1995   -2.4256    0.0000 H   0  0  0  0  0  0
   -2.7737   -0.6796    0.0000 H   0  0  0  0  0  0
   -3.7464   -2.9436    0.0000 H   0  0  0  0  0  0
    3.5653    3.8028    0.0000 H   0  0  0  0  0  0
    6.0240    3.9652    0.0000 H   0  0  0  0  0  0
    7.4205    1.9063    0.0000 H   0  0  0  0  0  0
    6.3309   -0.3293    0.0000 H   0  0  0  0  0  0
    3.8871   -0.5253    0.0000 H   0  0  0  0  0  0
    1.7741   -0.3877   -0.8787 H   0  0  0  0  0  0
    1.7741   -0.3877    0.8787 H   0  0  0  0  0  0
  1  6  2  0  0  0
  1  2  1  0  0  0
  1 18  1  0  0  0
  2  3  2  0  0  0
  2 19  1  0  0  0
  3  4  1  0  0  0
  3 20  1  0  0  0
  4  5  2  0  0  0
  4  7  1  0  0  0
  5  6  1  0  0  0
  5 21  1  0  0  0
  6 22  1  0  0  0
  7  8  1  0  0  0
  7 17  2  0  0  0
  8  9  1  0  0  0
  8 28  1  0  0  0
  8 29  1  0  0  0
  9 11  1  0  0  0
  9 10  2  0  0  0
 11 16  2  0  0  0
 11 12  1  0  0  0
 12 13  2  0  0  0
 12 23  1  0  0  0
 13 14  1  0  0  0
 13 24  1  0  0  0
 14 15  2  0  0  0
 14 25  1  0  0  0
 15 16  1  0  0  0
 15 26  1  0  0  0
 16 27  1  0  0  0
M  END
> <s_m_entry_id>
12

> <s_m_entry_name>
biosynth_p1.0.sdf.5

> <s_m_Source_Path>
/Users/Sebastito/Downloads

> <s_m_Source_File>
biosynth_p1.0.sdf.gz

> <i_m_Source_File_Index>
5

> <chiral flag>
0

> <version>
0

> <i_m_ct_enhanced_stereo_status>
0

> <s_m_source_file>
ligprep_vs.maegz

> <i_m_source_file_index>
5

> <i_lp_mmshare_version>
37011

> <i_f3d_flags>
0

> <r_lp_tautomer_probability>
0.692308

> <r_epik_Ionization_Penalty>
0.0704119

> <r_epik_Ionization_Penalty_Charging>
0

> <r_epik_Ionization_Penalty_Neutral>
0.0704119

> <r_epik_State_Penalty>
0.327945

> <r_epik_Charging_Adjusted_Penalty>
0.327945

> <i_epik_Tot_Q>
0

> <i_epik_Tot_abs_Q>
0

> <s_lp_Force_Field>
OPLS_2005

> <r_lp_Energy>
29.0522

> <b_lp_Chiralities_Consistent>
1

> <s_lp_Variant>
ZINC04530702-1

$$$$
ZINC04530702
                    3D
 Structure written by MMmdl.
 29 30  0  0  1  0            999 V2000
   -2.0441   -3.9102    0.0000 C   0  0  0  0  0  0
   -0.6388   -3.8835    0.0000 C   0  0  0  0  0  0
    0.0492   -2.6541    0.0000 C   0  0  0  0  0  0
   -0.6583   -1.4231    0.0000 C   0  0  0  0  0  0
   -2.0754   -1.4731    0.0000 C   0  0  0  0  0  0
   -2.7623   -2.7024    0.0000 C   0  0  0  0  0  0
    0.0080   -0.0747    0.0000 C   0  0  0  0  0  0
    1.4990   -0.0014    0.0000 C   0  0  0  0  0  0
    2.2346    1.1402    0.0000 C   0  0  0  0  0  0
    1.6544    2.3520   -0.0000 O   0  0  0  0  0  0
    3.7275    1.1836    0.0000 C   0  0  0  0  0  0
    4.4153    2.4257    0.0000 C   0  0  0  0  0  0
    5.8222    2.4849    0.0000 C   0  0  0  0  0  0
    6.5779    1.3006    0.0000 C   0  0  0  0  0  0
    5.9203    0.0589    0.0000 C   0  0  0  0  0  0
    4.5130    0.0017    0.0000 C   0  0  0  0  0  0
   -0.6840    0.9449   -0.0000 O   0  0  0  0  0  0
   -2.5693   -4.8538    0.0000 H   0  0  0  0  0  0
   -0.0844   -4.8105    0.0000 H   0  0  0  0  0  0
    1.1246   -2.7080   -0.0000 H   0  0  0  0  0  0
   -2.6616   -0.5654    0.0000 H   0  0  0  0  0  0
   -3.8423   -2.7170    0.0000 H   0  0  0  0  0  0
    3.8789    3.3626    0.0000 H   0  0  0  0  0  0
    6.3213    3.4428    0.0000 H   0  0  0  0  0  0
    7.6572    1.3443    0.0000 H   0  0  0  0  0  0
    6.4963   -0.8548    0.0000 H   0  0  0  0  0  0
    4.0656   -0.9787   -0.0000 H   0  0  0  0  0  0
    2.0284   -0.9321    0.0000 H   0  0  0  0  0  0
    2.3449    2.9969   -0.0000 H   0  0  0  0  0  0
  1  6  2  0  0  0
  1  2  1  0  0  0
  1 18  1  0  0  0
  2  3  2  0  0  0
  2 19  1  0  0  0
  3  4  1  0  0  0
  3 20  1  0  0  0
  4  5  2  0  0  0
  4  7  1  0  0  0
  5  6  1  0  0  0
  5 21  1  0  0  0
  6 22  1  0  0  0
  7  8  1  0  0  0
  7 17  2  0  0  0
  8 28  1  0  0  0
  8  9  2  0  0  0
  9 11  1  0  0  0
  9 10  1  0  0  0
 10 29  1  0  0  0
 11 16  2  0  0  0
 11 12  1  0  0  0
 12 13  2  0  0  0
 12 23  1  0  0  0
 13 14  1  0  0  0
 13 24  1  0  0  0
 14 15  2  0  0  0
 14 25  1  0  0  0
 15 16  1  0  0  0
 15 26  1  0  0  0
 16 27  1  0  0  0
M  END
> <s_m_entry_id>
12

> <s_m_entry_name>
biosynth_p1.0.sdf.5

> <s_m_Source_Path>
/Users/Sebastito/Downloads

> <s_m_Source_File>
biosynth_p1.0.sdf.gz

> <i_m_Source_File_Index>
5

> <chiral flag>
0

> <version>
0

> <i_m_ct_enhanced_stereo_status>
0

> <s_m_source_file>
ligprep_vs.maegz

> <i_m_source_file_index>
5

> <i_lp_mmshare_version>
37011

> <i_f3d_flags>
0

> <r_lp_tautomer_probability>
0.0769231

> <r_epik_Ionization_Penalty>
0.0452871

> <r_epik_Ionization_Penalty_Charging>
0

> <r_epik_Ionization_Penalty_Neutral>
0.0452871

> <r_epik_State_Penalty>
0.969628

> <r_epik_Charging_Adjusted_Penalty>
0.969628

> <i_epik_Tot_Q>
0

> <i_epik_Tot_abs_Q>
0

> <s_lp_Force_Field>
OPLS_2005

> <r_lp_Energy>
20.2138

> <b_lp_Chiralities_Consistent>
1

> <s_lp_Variant>
ZINC04530702-2

$$$$
ZINC04530702
                    3D
 Structure written by MMmdl.
 29 30  0  0  1  0            999 V2000
   -1.8765   -3.8255   -0.5513 C   0  0  0  0  0  0
   -0.5286   -3.5657   -0.8591 C   0  0  0  0  0  0
    0.0776   -2.3688   -0.4301 C   0  0  0  0  0  0
   -0.6587   -1.4142    0.3150 C   0  0  0  0  0  0
   -2.0141   -1.6889    0.6164 C   0  0  0  0  0  0
   -2.6191   -2.8856    0.1862 C   0  0  0  0  0  0
   -0.0507   -0.1333    0.7869 C   0  0  0  0  0  0
    1.4204    0.0040    0.6901 C   0  0  0  0  0  0
    2.0742    1.1566    0.4230 C   0  0  0  0  0  0
    3.4137    1.1547    0.3786 O   0  0  0  0  0  0
    1.4804    2.4687    0.0987 C   0  0  0  0  0  0
    0.5472    2.6060   -0.9540 C   0  0  0  0  0  0
   -0.0101    3.8633   -1.2571 C   0  0  0  0  0  0
    0.3656    4.9978   -0.5132 C   0  0  0  0  0  0
    1.3009    4.8731    0.5313 C   0  0  0  0  0  0
    1.8572    3.6148    0.8333 C   0  0  0  0  0  0
   -0.7433    0.7601    1.2765 O   0  0  0  0  0  0
   -2.3407   -4.7428   -0.8822 H   0  0  0  0  0  0
    0.0418   -4.2847   -1.4287 H   0  0  0  0  0  0
    1.1099   -2.2005   -0.6976 H   0  0  0  0  0  0
   -2.6068   -0.9846    1.1825 H   0  0  0  0  0  0
   -3.6548   -3.0814    0.4222 H   0  0  0  0  0  0
    0.2547    1.7435   -1.5347 H   0  0  0  0  0  0
   -0.7250    3.9568   -2.0613 H   0  0  0  0  0  0
   -0.0610    5.9625   -0.7454 H   0  0  0  0  0  0
    1.5921    5.7429    1.1016 H   0  0  0  0  0  0
    2.5733    3.5308    1.6377 H   0  0  0  0  0  0
    2.0042   -0.8896    0.8562 H   0  0  0  0  0  0
    3.7043    0.2782    0.5781 H   0  0  0  0  0  0
  1  6  2  0  0  0
  1  2  1  0  0  0
  1 18  1  0  0  0
  2  3  2  0  0  0
  2 19  1  0  0  0
  3  4  1  0  0  0
  3 20  1  0  0  0
  4  5  2  0  0  0
  4  7  1  0  0  0
  5  6  1  0  0  0
  5 21  1  0  0  0
  6 22  1  0  0  0
  7  8  1  0  0  0
  7 17  2  0  0  0
  8 28  1  0  0  0
  8  9  2  0  0  0
  9 11  1  0  0  0
  9 10  1  0  0  0
 10 29  1  0  0  0
 11 16  2  0  0  0
 11 12  1  0  0  0
 12 13  2  0  0  0
 12 23  1  0  0  0
 13 14  1  0  0  0
 13 24  1  0  0  0
 14 15  2  0  0  0
 14 25  1  0  0  0
 15 16  1  0  0  0
 15 26  1  0  0  0
 16 27  1  0  0  0
M  END
> <s_m_entry_id>
12

> <s_m_entry_name>
biosynth_p1.0.sdf.5

> <s_m_Source_Path>
/Users/Sebastito/Downloads

> <s_m_Source_File>
biosynth_p1.0.sdf.gz

> <i_m_Source_File_Index>
5

> <chiral flag>
0

> <version>
0

> <i_m_ct_enhanced_stereo_status>
0

> <s_m_source_file>
ligprep_vs.maegz

> <i_m_source_file_index>
5

> <i_lp_mmshare_version>
37011

> <i_f3d_flags>
0

> <r_lp_tautomer_probability>
0.0769231

> <r_epik_Ionization_Penalty>
0.0452871

> <r_epik_Ionization_Penalty_Charging>
0

> <r_epik_Ionization_Penalty_Neutral>
0.0452871

> <r_epik_State_Penalty>
0.969628

> <r_epik_Charging_Adjusted_Penalty>
0.969628

> <i_epik_Tot_Q>
0

> <i_epik_Tot_abs_Q>
0

> <s_lp_Force_Field>
OPLS_2005

> <r_lp_Energy>
18.1957

> <b_lp_Chiralities_Consistent>
1

> <s_lp_Variant>
ZINC04530702-3

$$$$
ZINC04530702
                    3D
 Structure written by MMmdl.
 28 29  0  0  1  0            999 V2000
   -2.3532   -3.8655    0.0000 C   0  0  0  0  0  0
   -0.9500   -3.9474   -0.0000 C   0  0  0  0  0  0
   -0.1687   -2.7750   -0.0000 C   0  0  0  0  0  0
   -0.7790   -1.4930   -0.0000 C   0  0  0  0  0  0
   -2.1955   -1.4333   -0.0000 C   0  0  0  0  0  0
   -2.9756   -2.6055    0.0000 C   0  0  0  0  0  0
   -0.0123   -0.1991   -0.0000 C   0  0  0  0  0  0
    1.4742   -0.2215   -0.0000 C   0  0  0  0  0  0
    2.3350    0.8749    0.0000 C   0  0  0  0  0  0
    2.0269    2.0908    0.0001 O   0  5  0  0  0  0
    3.8337    0.6869    0.0000 C   0  0  0  0  0  0
    4.7258    1.7992   -0.0000 C   0  0  0  0  0  0
    6.1240    1.6340   -0.0000 C   0  0  0  0  0  0
    6.6821    0.3464    0.0000 C   0  0  0  0  0  0
    5.8330   -0.7713    0.0000 C   0  0  0  0  0  0
    4.4346   -0.6027    0.0000 C   0  0  0  0  0  0
   -0.6181    0.8737   -0.0000 O   0  0  0  0  0  0
   -2.9498   -4.7658    0.0000 H   0  0  0  0  0  0
   -0.4681   -4.9138   -0.0000 H   0  0  0  0  0  0
    0.8993   -2.9113   -0.0000 H   0  0  0  0  0  0
   -2.7086   -0.4824   -0.0000 H   0  0  0  0  0  0
   -4.0535   -2.5363    0.0000 H   0  0  0  0  0  0
    4.3582    2.8145   -0.0000 H   0  0  0  0  0  0
    6.7680    2.5010   -0.0000 H   0  0  0  0  0  0
    7.7542    0.2166    0.0000 H   0  0  0  0  0  0
    6.2538   -1.7658    0.0001 H   0  0  0  0  0  0
    3.8558   -1.5101    0.0001 H   0  0  0  0  0  0
    1.9051   -1.1978   -0.0001 H   0  0  0  0  0  0
  1  6  2  0  0  0
  1  2  1  0  0  0
  1 18  1  0  0  0
  2  3  2  0  0  0
  2 19  1  0  0  0
  3  4  1  0  0  0
  3 20  1  0  0  0
  4  5  2  0  0  0
  4  7  1  0  0  0
  5  6  1  0  0  0
  5 21  1  0  0  0
  6 22  1  0  0  0
  7  8  1  0  0  0
  7 17  2  0  0  0
  8  9  2  0  0  0
  8 28  1  0  0  0
  9 11  1  0  0  0
  9 10  1  0  0  0
 11 16  2  0  0  0
 11 12  1  0  0  0
 12 13  2  0  0  0
 12 23  1  0  0  0
 13 14  1  0  0  0
 13 24  1  0  0  0
 14 15  2  0  0  0
 14 25  1  0  0  0
 15 16  1  0  0  0
 15 26  1  0  0  0
 16 27  1  0  0  0
M  CHG  1  10  -1
M  END
> <s_m_entry_id>
12

> <s_m_entry_name>
biosynth_p1.0.sdf.5

> <s_m_Source_Path>
/Users/Sebastito/Downloads

> <s_m_Source_File>
biosynth_p1.0.sdf.gz

> <i_m_Source_File_Index>
5

> <chiral flag>
0

> <version>
0

> <i_m_ct_enhanced_stereo_status>
0

> <s_m_source_file>
ligprep_vs.maegz

> <i_m_source_file_index>
5

> <i_lp_mmshare_version>
37011

> <i_f3d_flags>
0

> <r_epik_Ionization_Penalty>
1.29683

> <r_epik_Ionization_Penalty_Charging>
1.29683

> <r_epik_Ionization_Penalty_Neutral>
0

> <r_epik_State_Penalty>
2.3841

> <r_epik_Charging_Adjusted_Penalty>
3.68093

> <i_epik_Tot_Q>
-1

> <i_epik_Tot_abs_Q>
1

> <s_lp_Force_Field>
OPLS_2005

> <r_lp_Energy>
22.6171

> <b_lp_Chiralities_Consistent>
1

> <s_lp_Variant>
ZINC04530702-4

$$$$
ZINC04530702
                    3D
 Structure written by MMmdl.
 28 29  0  0  1  0            999 V2000
   -1.7558   -4.2894    0.2462 C   0  0  0  0  0  0
   -0.4766   -3.9016    0.6853 C   0  0  0  0  0  0
   -0.0036   -2.6004    0.4255 C   0  0  0  0  0  0
   -0.8057   -1.6689   -0.2786 C   0  0  0  0  0  0
   -2.0914   -2.0717   -0.7115 C   0  0  0  0  0  0
   -2.5634   -3.3730   -0.4516 C   0  0  0  0  0  0
   -0.3345   -0.2835   -0.5817 C   0  0  0  0  0  0
    1.1205   -0.0182   -0.5021 C   0  0  0  0  0  0
    1.7922    1.1759   -0.2831 C   0  0  0  0  0  0
    3.0244    1.3900   -0.2270 O   0  5  0  0  0  0
    1.0537    2.4276   -0.0321 C   0  0  0  0  0  0
    0.3454    2.6078    1.1766 C   0  0  0  0  0  0
   -0.3535    3.8056    1.4230 C   0  0  0  0  0  0
   -0.3454    4.8359    0.4635 C   0  0  0  0  0  0
    0.3642    4.6680   -0.7409 C   0  0  0  0  0  0
    1.0632    3.4700   -0.9858 C   0  0  0  0  0  0
   -1.1273    0.5943   -0.9248 O   0  0  0  0  0  0
   -2.1177   -5.2871    0.4456 H   0  0  0  0  0  0
    0.1437   -4.6019    1.2249 H   0  0  0  0  0  0
    0.9768   -2.3327    0.7904 H   0  0  0  0  0  0
   -2.7285   -1.3874   -1.2533 H   0  0  0  0  0  0
   -3.5457   -3.6679   -0.7895 H   0  0  0  0  0  0
    0.3365    1.8214    1.9171 H   0  0  0  0  0  0
   -0.8947    3.9332    2.3487 H   0  0  0  0  0  0
   -0.8810    5.7546    0.6518 H   0  0  0  0  0  0
    0.3734    5.4576   -1.4775 H   0  0  0  0  0  0
    1.6063    3.3471   -1.9114 H   0  0  0  0  0  0
    1.7468   -0.8856   -0.6474 H   0  0  0  0  0  0
  1  6  2  0  0  0
  1  2  1  0  0  0
  1 18  1  0  0  0
  2  3  2  0  0  0
  2 19  1  0  0  0
  3  4  1  0  0  0
  3 20  1  0  0  0
  4  5  2  0  0  0
  4  7  1  0  0  0
  5  6  1  0  0  0
  5 21  1  0  0  0
  6 22  1  0  0  0
  7  8  1  0  0  0
  7 17  2  0  0  0
  8 28  1  0  0  0
  8  9  2  0  0  0
  9 11  1  0  0  0
  9 10  1  0  0  0
 11 16  2  0  0  0
 11 12  1  0  0  0
 12 13  2  0  0  0
 12 23  1  0  0  0
 13 14  1  0  0  0
 13 24  1  0  0  0
 14 15  2  0  0  0
 14 25  1  0  0  0
 15 16  1  0  0  0
 15 26  1  0  0  0
 16 27  1  0  0  0
M  CHG  1  10  -1
M  END
> <s_m_entry_id>
12

> <s_m_entry_name>
biosynth_p1.0.sdf.5

> <s_m_Source_Path>
/Users/Sebastito/Downloads

> <s_m_Source_File>
biosynth_p1.0.sdf.gz

> <i_m_Source_File_Index>
5

> <chiral flag>
0

> <version>
0

> <i_m_ct_enhanced_stereo_status>
0

> <s_m_source_file>
ligprep_vs.maegz

> <i_m_source_file_index>
5

> <i_lp_mmshare_version>
37011

> <i_f3d_flags>
0

> <r_epik_Ionization_Penalty>
1.29683

> <r_epik_Ionization_Penalty_Charging>
1.29683

> <r_epik_Ionization_Penalty_Neutral>
0

> <r_epik_State_Penalty>
2.3841

> <r_epik_Charging_Adjusted_Penalty>
3.68093

> <i_epik_Tot_Q>
-1

> <i_epik_Tot_abs_Q>
1

> <s_lp_Force_Field>
OPLS_2005

> <r_lp_Energy>
20.3927

> <b_lp_Chiralities_Consistent>
1

> <s_lp_Variant>
ZINC04530702-5

$$$$
ZINC82399758
                    3D
 Structure written by MMmdl.
 27 26  0  0  1  0            999 V2000
   -2.4390   -2.4475   -0.4570 C   0  0  0  0  0  0
   -2.0009   -1.1164    0.1659 C   0  0  0  0  0  0
   -2.4184   -1.0028    1.6401 C   0  0  0  0  0  0
   -0.5846   -1.0300    0.0628 O   0  0  0  0  0  0
    0.0250    0.1618   -0.0948 C   0  0  0  0  0  0
   -0.5316    1.2577   -0.1649 O   0  0  0  0  0  0
    1.5428    0.0352   -0.1845 C   0  0  0  0  0  0
    2.1466   -0.4876    1.1307 C   0  0  0  0  0  0
    3.6778   -0.4693    1.1439 C   0  0  0  0  0  0
    4.3346   -0.0463    0.1931 O   0  0  0  0  0  0
    4.3717   -1.0241    2.3857 C   0  0  0  0  0  0
    4.0063   -0.3349    3.6082 N   0  0  0  0  0  0
   -3.5225   -2.5613   -0.4155 H   0  0  0  0  0  0
   -1.9936   -3.2954    0.0647 H   0  0  0  0  0  0
   -2.1403   -2.5052   -1.5041 H   0  0  0  0  0  0
   -2.4689   -0.3110   -0.4024 H   0  0  0  0  0  0
   -3.5006   -1.0810    1.7463 H   0  0  0  0  0  0
   -2.1153   -0.0447    2.0633 H   0  0  0  0  0  0
   -1.9654   -1.7912    2.2419 H   0  0  0  0  0  0
    1.7941   -0.6325   -1.0091 H   0  0  0  0  0  0
    1.9577    1.0138   -0.4291 H   0  0  0  0  0  0
    1.7908    0.1188    1.9643 H   0  0  0  0  0  0
    1.8119   -1.5084    1.3172 H   0  0  0  0  0  0
    4.1295   -2.0822    2.4866 H   0  0  0  0  0  0
    5.4515   -0.9523    2.2524 H   0  0  0  0  0  0
    3.0284   -0.4922    3.8056 H   0  0  0  0  0  0
    4.5196   -0.7284    4.3840 H   0  0  0  0  0  0
  1  2  1  0  0  0
  1 13  1  0  0  0
  1 14  1  0  0  0
  1 15  1  0  0  0
  2  3  1  0  0  0
  2  4  1  0  0  0
  2 16  1  0  0  0
  3 17  1  0  0  0
  3 18  1  0  0  0
  3 19  1  0  0  0
  4  5  1  0  0  0
  5  6  2  0  0  0
  5  7  1  0  0  0
  7  8  1  0  0  0
  7 20  1  0  0  0
  7 21  1  0  0  0
  8  9  1  0  0  0
  8 22  1  0  0  0
  8 23  1  0  0  0
  9 10  2  0  0  0
  9 11  1  0  0  0
 11 12  1  0  0  0
 11 24  1  0  0  0
 11 25  1  0  0  0
 12 26  1  0  0  0
 12 27  1  0  0  0
M  END
> <s_m_entry_id>
13

> <s_m_entry_name>
biosynth_p1.0.sdf.6

> <s_m_Source_Path>
/Users/Sebastito/Downloads

> <s_m_Source_File>
biosynth_p1.0.sdf.gz

> <i_m_Source_File_Index>
6

> <chiral flag>
0

> <version>
0

> <i_m_ct_enhanced_stereo_status>
0

> <s_m_source_file>
ligprep_vs.maegz

> <i_m_source_file_index>
6

> <i_lp_mmshare_version>
37011

> <r_lp_tautomer_probability>
0.9999

> <r_epik_Ionization_Penalty>
0.37858

> <r_epik_Ionization_Penalty_Charging>
0

> <r_epik_Ionization_Penalty_Neutral>
0.37858

> <r_epik_State_Penalty>
0.376492

> <r_epik_Charging_Adjusted_Penalty>
0.376492

> <i_epik_Tot_Q>
0

> <i_epik_Tot_abs_Q>
0

> <s_epik_Chemistry_Notes>
This compound has an ester and may undergo hydrolysis at high or low pH.

> <i_f3d_flags>
0

> <s_lp_Force_Field>
OPLS_2005

> <r_lp_Energy>
0.767757

> <b_lp_Chiralities_Consistent>
1

> <s_lp_Variant>
ZINC82399758-1

$$$$
ZINC82399758
                    3D
 Structure written by MMmdl.
 28 27  0  0  1  0            999 V2000
   -2.5695   -2.8261    0.4919 C   0  0  0  0  0  0
   -2.2462   -1.3685    0.8416 C   0  0  0  0  0  0
   -2.2224   -1.1288    2.3587 C   0  0  0  0  0  0
   -0.9728   -1.0573    0.2880 O   0  0  0  0  0  0
   -0.6994    0.1841   -0.1591 C   0  0  0  0  0  0
   -1.4627    1.1496   -0.1338 O   0  0  0  0  0  0
    0.7138    0.3049   -0.7222 C   0  0  0  0  0  0
    0.9078   -0.5700   -1.9762 C   0  0  0  0  0  0
    1.9362   -0.0130   -2.9634 C   0  0  0  0  0  0
    2.6992    0.9052   -2.6585 O   0  0  0  0  0  0
    1.9747   -0.6786   -4.3426 C   0  0  0  0  0  0
    2.9959   -0.0286   -5.1853 N   0  3  0  0  0  0
   -3.5452   -3.1153    0.8832 H   0  0  0  0  0  0
   -1.8272   -3.5082    0.9075 H   0  0  0  0  0  0
   -2.5901   -2.9728   -0.5884 H   0  0  0  0  0  0
   -3.0159   -0.7389    0.3925 H   0  0  0  0  0  0
   -3.1851   -1.3729    2.8081 H   0  0  0  0  0  0
   -2.0075   -0.0850    2.5896 H   0  0  0  0  0  0
   -1.4620   -1.7410    2.8443 H   0  0  0  0  0  0
    0.8866    1.3570   -0.9521 H   0  0  0  0  0  0
    1.4341    0.0282    0.0480 H   0  0  0  0  0  0
    1.2092   -1.5759   -1.6826 H   0  0  0  0  0  0
   -0.0374   -0.6729   -2.5109 H   0  0  0  0  0  0
    2.2083   -1.7379   -4.2332 H   0  0  0  0  0  0
    0.9977   -0.5955   -4.8192 H   0  0  0  0  0  0
    3.0190   -0.4688   -6.0939 H   0  0  0  0  0  0
    3.8996   -0.1160   -4.7428 H   0  0  0  0  0  0
    2.7701    0.9505   -5.2888 H   0  0  0  0  0  0
  1  2  1  0  0  0
  1 13  1  0  0  0
  1 14  1  0  0  0
  1 15  1  0  0  0
  2  3  1  0  0  0
  2  4  1  0  0  0
  2 16  1  0  0  0
  3 17  1  0  0  0
  3 18  1  0  0  0
  3 19  1  0  0  0
  4  5  1  0  0  0
  5  6  2  0  0  0
  5  7  1  0  0  0
  7  8  1  0  0  0
  7 20  1  0  0  0
  7 21  1  0  0  0
  8  9  1  0  0  0
  8 22  1  0  0  0
  8 23  1  0  0  0
  9 10  2  0  0  0
  9 11  1  0  0  0
 11 12  1  0  0  0
 11 24  1  0  0  0
 11 25  1  0  0  0
 12 26  1  0  0  0
 12 27  1  0  0  0
 12 28  1  0  0  0
M  CHG  1  12   1
M  END
> <s_m_entry_id>
13

> <s_m_entry_name>
biosynth_p1.0.sdf.6

> <s_m_Source_Path>
/Users/Sebastito/Downloads

> <s_m_Source_File>
biosynth_p1.0.sdf.gz

> <i_m_Source_File_Index>
6

> <chiral flag>
0

> <version>
0

> <i_m_ct_enhanced_stereo_status>
0

> <s_m_source_file>
ligprep_vs.maegz

> <i_m_source_file_index>
6

> <i_lp_mmshare_version>
37011

> <r_lp_tautomer_probability>
0.9999

> <r_epik_Ionization_Penalty>
0.444619

> <r_epik_Ionization_Penalty_Charging>
0.444619

> <r_epik_Ionization_Penalty_Neutral>
8.66683e-10

> <r_epik_State_Penalty>
0.446962

> <r_epik_Charging_Adjusted_Penalty>
0.891581

> <i_epik_Tot_Q>
1

> <i_epik_Tot_abs_Q>
1

> <s_epik_Chemistry_Notes>
This compound has an ester and may undergo hydrolysis at high or low pH.

> <i_f3d_flags>
0

> <s_lp_Force_Field>
OPLS_2005

> <r_lp_Energy>
-0.975155

> <b_lp_Chiralities_Consistent>
1

> <s_lp_Variant>
ZINC82399758-2

$$$$
ZINC18155318
                    3D
 Structure written by MMmdl.
 24 25  0  0  1  0            999 V2000
    0.0535   -0.0855    0.0510 C   0  0  0  0  0  0
    1.5495    0.0256    0.0201 C   0  0  0  0  0  0
    2.3454    1.2035   -0.0263 C   0  0  0  0  0  0
    3.6268    0.7329   -0.0333 C   0  0  0  0  0  0
    4.8341    1.4190   -0.0436 N   0  0  0  0  0  0
    3.5691   -0.6530   -0.0069 N   0  0  0  0  0  0
    2.2843   -1.0751    0.0397 N   0  0  0  0  0  0
    4.6186   -1.6047   -0.0046 C   0  0  0  0  0  0
    5.6995   -1.4854   -0.9067 C   0  0  0  0  0  0
    6.7358   -2.4394   -0.9021 C   0  0  0  0  0  0
    6.6964   -3.5196    0.0002 C   0  0  0  0  0  0
    5.6184   -3.6478    0.8969 C   0  0  0  0  0  0
    4.5812   -2.6948    0.8935 C   0  0  0  0  0  0
   -0.4149    0.8990    0.0554 H   0  0  0  0  0  0
   -0.2829   -0.6165    0.9417 H   0  0  0  0  0  0
   -0.3181   -0.6248   -0.8205 H   0  0  0  0  0  0
    2.0241    2.2343   -0.0426 H   0  0  0  0  0  0
    4.8922    2.4270   -0.0564 H   0  0  0  0  0  0
    5.7359   -0.6680   -1.6117 H   0  0  0  0  0  0
    7.5601   -2.3434   -1.5934 H   0  0  0  0  0  0
    7.4908   -4.2514    0.0022 H   0  0  0  0  0  0
    5.5857   -4.4777    1.5874 H   0  0  0  0  0  0
    3.7594   -2.8017    1.5867 H   0  0  0  0  0  0
    5.7282    0.9496   -0.0266 H   0  0  0  0  0  0
  1  2  1  0  0  0
  1 14  1  0  0  0
  1 15  1  0  0  0
  1 16  1  0  0  0
  2  7  2  0  0  0
  2  3  1  0  0  0
  3  4  2  0  0  0
  3 17  1  0  0  0
  4  5  1  0  0  0
  4  6  1  0  0  0
  5 18  1  0  0  0
  5 24  1  0  0  0
  6  7  1  0  0  0
  6  8  1  0  0  0
  8 13  2  0  0  0
  8  9  1  0  0  0
  9 10  2  0  0  0
  9 19  1  0  0  0
 10 11  1  0  0  0
 10 20  1  0  0  0
 11 12  2  0  0  0
 11 21  1  0  0  0
 12 13  1  0  0  0
 12 22  1  0  0  0
 13 23  1  0  0  0
M  END
> <s_m_entry_id>
14

> <s_m_entry_name>
biosynth_p1.0.sdf.7

> <s_m_Source_Path>
/Users/Sebastito/Downloads

> <s_m_Source_File>
biosynth_p1.0.sdf.gz

> <i_m_Source_File_Index>
7

> <chiral flag>
0

> <version>
0

> <i_m_ct_enhanced_stereo_status>
0

> <s_m_source_file>
ligprep_vs.maegz

> <i_m_source_file_index>
7

> <i_lp_mmshare_version>
37011

> <r_lp_tautomer_probability>
1

> <r_epik_Ionization_Penalty>
0.00103238

> <r_epik_Ionization_Penalty_Charging>
0

> <r_epik_Ionization_Penalty_Neutral>
0.00103238

> <r_epik_State_Penalty>
0.000523214

> <r_epik_Charging_Adjusted_Penalty>
0.000523214

> <i_epik_Tot_Q>
0

> <i_epik_Tot_abs_Q>
0

> <i_f3d_flags>
0

> <s_lp_Force_Field>
OPLS_2005

> <r_lp_Energy>
9.35775

> <b_lp_Chiralities_Consistent>
1

> <s_lp_Variant>
ZINC18155318-1

$$$$
ZINC28767194
                    3D
 Structure written by MMmdl.
 41 43  0  0  1  0            999 V2000
   -0.5888    1.4106    0.0387 C   0  0  0  0  0  0
    0.0046    0.0065    0.2267 C   0  0  0  0  0  0
    1.4638   -0.0034    0.1137 N   0  0  0  0  0  0
    2.2550   -0.0065    1.2544 C   0  0  0  0  0  0
    3.6072   -0.0131    1.2879 C   0  0  0  0  0  0
    4.3175   -0.0168   -0.0277 C   0  0  0  0  0  0
    5.5466   -0.0232   -0.1126 O   0  0  0  0  0  0
    3.4699   -0.0127   -1.2625 C   0  0  0  0  0  0
    2.0520   -0.0069   -1.1710 C   0  0  0  0  0  0
    1.2915   -0.0053   -2.3688 C   0  0  0  0  0  0
    1.9199   -0.0046   -3.6333 C   0  0  0  0  0  0
    3.3240   -0.0110   -3.7079 C   0  0  0  0  0  0
    4.0929   -0.0148   -2.5317 C   0  0  0  0  0  0
    1.1762    0.0006   -4.8222 N   0  0  0  0  0  0
    0.4564   -1.2468   -5.0576 C   0  0  0  0  0  0
   -0.1963   -1.2441   -6.4516 C   0  0  0  0  0  0
   -1.0231   -0.0321   -6.6441 N   0  3  0  0  0  0
   -0.2724    1.2201   -6.4040 C   0  0  0  0  0  0
    0.3794    1.2091   -5.0097 C   0  0  0  0  0  0
    4.3611   -0.0128    2.6789 C   0  0  0  0  0  0
    5.6119   -0.0021    2.6613 O   0  0  0  0  0  0
    3.6408   -0.0222    3.7027 O   0  5  0  0  0  0
   -1.6738    1.3868    0.1399 H   0  0  0  0  0  0
   -0.3571    1.8241   -0.9424 H   0  0  0  0  0  0
   -0.2017    2.1006    0.7890 H   0  0  0  0  0  0
   -0.2777   -0.3606    1.2140 H   0  0  0  0  0  0
   -0.4417   -0.7038   -0.4686 H   0  0  0  0  0  0
    1.6762    0.0012    2.1670 H   0  0  0  0  0  0
    0.2135   -0.0008   -2.3443 H   0  0  0  0  0  0
    3.8187   -0.0115   -4.6684 H   0  0  0  0  0  0
    5.1699   -0.0186   -2.6185 H   0  0  0  0  0  0
    1.1406   -2.0919   -4.9685 H   0  0  0  0  0  0
   -0.3103   -1.3743   -4.2920 H   0  0  0  0  0  0
    0.5729   -1.2726   -7.2245 H   0  0  0  0  0  0
   -0.8161   -2.1309   -6.5852 H   0  0  0  0  0  0
    0.4928    1.3261   -7.1742 H   0  0  0  0  0  0
   -0.9461    2.0713   -6.5042 H   0  0  0  0  0  0
   -0.3947    1.2598   -4.2427 H   0  0  0  0  0  0
    1.0099    2.0907   -4.8863 H   0  0  0  0  0  0
   -1.3889   -0.0254   -7.5854 H   0  0  0  0  0  0
   -1.7950   -0.0684   -5.9939 H   0  0  0  0  0  0
  1  2  1  0  0  0
  1 23  1  0  0  0
  1 24  1  0  0  0
  1 25  1  0  0  0
  2  3  1  0  0  0
  2 26  1  0  0  0
  2 27  1  0  0  0
  3  9  1  0  0  0
  3  4  1  0  0  0
  4  5  2  0  0  0
  4 28  1  0  0  0
  5  6  1  0  0  0
  5 20  1  0  0  0
  6  7  2  0  0  0
  6  8  1  0  0  0
  8 13  2  0  0  0
  8  9  1  0  0  0
  9 10  2  0  0  0
 10 11  1  0  0  0
 10 29  1  0  0  0
 11 12  2  0  0  0
 11 14  1  0  0  0
 12 13  1  0  0  0
 12 30  1  0  0  0
 13 31  1  0  0  0
 14 19  1  0  0  0
 14 15  1  0  0  0
 15 16  1  0  0  0
 15 32  1  0  0  0
 15 33  1  0  0  0
 16 17  1  0  0  0
 16 34  1  0  0  0
 16 35  1  0  0  0
 17 18  1  0  0  0
 17 40  1  0  0  0
 17 41  1  0  0  0
 18 19  1  0  0  0
 18 36  1  0  0  0
 18 37  1  0  0  0
 19 38  1  0  0  0
 19 39  1  0  0  0
 20 21  2  0  0  0
 20 22  1  0  0  0
M  CHG  2  17   1  22  -1
M  END
> <s_m_entry_id>
15

> <s_m_entry_name>
biosynth_p1.0.sdf.8

> <s_m_Source_Path>
/Users/Sebastito/Downloads

> <s_m_Source_File>
biosynth_p1.0.sdf.gz

> <i_m_Source_File_Index>
8

> <chiral flag>
0

> <version>
0

> <i_m_ct_enhanced_stereo_status>
0

> <s_m_source_file>
ligprep_vs.maegz

> <i_m_source_file_index>
8

> <i_lp_mmshare_version>
37011

> <r_epik_Ionization_Penalty>
0.166872

> <r_epik_Ionization_Penalty_Charging>
0.166872

> <r_epik_Ionization_Penalty_Neutral>
5.28461e-10

> <r_epik_State_Penalty>
0.164273

> <r_epik_Charging_Adjusted_Penalty>
0.331145

> <i_epik_Tot_Q>
0

> <i_epik_Tot_abs_Q>
2

> <i_f3d_flags>
0

> <s_lp_Force_Field>
OPLS_2005

> <r_lp_Energy>
39.7375

> <b_lp_Chiralities_Consistent>
1

> <s_lp_Variant>
ZINC28767194-1

$$$$
ZINC28767194
                    3D
 Structure written by MMmdl.
 42 44  0  0  1  0            999 V2000
   -0.4557    1.6280   -0.3272 C   0  0  0  0  0  0
    0.0217    0.1904   -0.0742 C   0  0  0  0  0  0
    1.4814    0.0843   -0.0374 N   0  0  0  0  0  0
    2.1499    0.0539    1.1793 C   0  0  0  0  0  0
    3.4891   -0.0858    1.3405 C   0  0  0  0  0  0
    4.3191   -0.2239    0.1059 C   0  0  0  0  0  0
    5.5420   -0.3707    0.1504 O   0  0  0  0  0  0
    3.6006   -0.1704   -1.2058 C   0  0  0  0  0  0
    2.1907   -0.0116   -1.2572 C   0  0  0  0  0  0
    1.5581    0.0445   -2.5260 C   0  0  0  0  0  0
    2.2922   -0.0498   -3.7299 C   0  0  0  0  0  0
    3.6927   -0.2209   -3.6531 C   0  0  0  0  0  0
    4.3375   -0.2778   -2.4059 C   0  0  0  0  0  0
    1.6142    0.0284   -4.9651 N   0  0  0  0  0  0
    2.2834   -0.4990   -6.1530 C   0  0  0  0  0  0
    1.2909   -0.6642   -7.3172 C   0  0  0  0  0  0
    0.5496    0.5919   -7.5585 N   0  3  0  0  0  0
   -0.1456    1.0871   -6.3510 C   0  0  0  0  0  0
    0.8356    1.2491   -5.1759 C   0  0  0  0  0  0
    4.0655   -0.0996    2.6940 C   0  0  0  0  0  0
    5.2581   -0.2510    2.9559 O   0  0  0  0  0  0
    3.1479    0.0787    3.6926 O   0  0  0  0  0  0
   -1.5447    1.6754   -0.3375 H   0  0  0  0  0  0
   -0.0999    2.0151   -1.2816 H   0  0  0  0  0  0
   -0.1030    2.2997    0.4560 H   0  0  0  0  0  0
   -0.3840   -0.1473    0.8802 H   0  0  0  0  0  0
   -0.3987   -0.4966   -0.8081 H   0  0  0  0  0  0
    1.4723    0.1621    2.0134 H   0  0  0  0  0  0
    0.4884    0.1558   -2.6012 H   0  0  0  0  0  0
    4.3000   -0.2958   -4.5424 H   0  0  0  0  0  0
    5.4108   -0.4002   -2.3855 H   0  0  0  0  0  0
    3.0822    0.1838   -6.4458 H   0  0  0  0  0  0
    2.7438   -1.4624   -5.9293 H   0  0  0  0  0  0
    1.8157   -0.9553   -8.2272 H   0  0  0  0  0  0
    0.5773   -1.4581   -7.0920 H   0  0  0  0  0  0
   -0.6292    2.0375   -6.5772 H   0  0  0  0  0  0
   -0.9352    0.3832   -6.0847 H   0  0  0  0  0  0
    0.2783    1.5324   -4.2834 H   0  0  0  0  0  0
    1.5278    2.0664   -5.3829 H   0  0  0  0  0  0
    1.2081    1.2969   -7.8575 H   0  0  0  0  0  0
   -0.1270    0.4430   -8.2934 H   0  0  0  0  0  0
    2.2679    0.1883    3.3675 H   0  0  0  0  0  0
  1  2  1  0  0  0
  1 23  1  0  0  0
  1 24  1  0  0  0
  1 25  1  0  0  0
  2  3  1  0  0  0
  2 26  1  0  0  0
  2 27  1  0  0  0
  3  9  1  0  0  0
  3  4  1  0  0  0
  4  5  2  0  0  0
  4 28  1  0  0  0
  5  6  1  0  0  0
  5 20  1  0  0  0
  6  7  2  0  0  0
  6  8  1  0  0  0
  8 13  2  0  0  0
  8  9  1  0  0  0
  9 10  2  0  0  0
 10 11  1  0  0  0
 10 29  1  0  0  0
 11 12  2  0  0  0
 11 14  1  0  0  0
 12 13  1  0  0  0
 12 30  1  0  0  0
 13 31  1  0  0  0
 14 19  1  0  0  0
 14 15  1  0  0  0
 15 16  1  0  0  0
 15 32  1  0  0  0
 15 33  1  0  0  0
 16 17  1  0  0  0
 16 34  1  0  0  0
 16 35  1  0  0  0
 17 18  1  0  0  0
 17 40  1  0  0  0
 17 41  1  0  0  0
 18 19  1  0  0  0
 18 36  1  0  0  0
 18 37  1  0  0  0
 19 38  1  0  0  0
 19 39  1  0  0  0
 20 21  2  0  0  0
 20 22  1  0  0  0
 22 42  1  0  0  0
M  CHG  1  17   1
M  END
> <s_m_entry_id>
15

> <s_m_entry_name>
biosynth_p1.0.sdf.8

> <s_m_Source_Path>
/Users/Sebastito/Downloads

> <s_m_Source_File>
biosynth_p1.0.sdf.gz

> <i_m_Source_File_Index>
8

> <chiral flag>
0

> <version>
0

> <i_m_ct_enhanced_stereo_status>
0

> <s_m_source_file>
ligprep_vs.maegz

> <i_m_source_file_index>
8

> <i_lp_mmshare_version>
37011

> <r_epik_Ionization_Penalty>
0.874448

> <r_epik_Ionization_Penalty_Charging>
0.00863747

> <r_epik_Ionization_Penalty_Neutral>
0.865811

> <r_epik_State_Penalty>
0.896254

> <r_epik_Charging_Adjusted_Penalty>
0.904891

> <i_epik_Tot_Q>
1

> <i_epik_Tot_abs_Q>
1

> <i_f3d_flags>
0

> <s_lp_Force_Field>
OPLS_2005

> <r_lp_Energy>
39.3494

> <b_lp_Chiralities_Consistent>
1

> <s_lp_Variant>
ZINC28767194-2

$$$$
ZINC28767194
                    3D
 Structure written by MMmdl.
 42 44  0  0  1  0            999 V2000
   -0.6734    1.2571    0.0450 C   0  0  0  0  0  0
    0.0004   -0.1196    0.0922 C   0  0  0  0  0  0
    1.4568   -0.0173    0.0237 N   0  0  0  0  0  0
    2.1736   -0.0389    1.2181 C   0  0  0  0  0  0
    3.5177   -0.0347    1.3075 C   0  0  0  0  0  0
    4.2939   -0.0056    0.0722 C   0  0  0  0  0  0
    5.6351   -0.0120    0.1327 O   0  0  0  0  0  0
    3.6578    0.0321   -1.1227 C   0  0  0  0  0  0
    2.1891    0.0375   -1.1743 C   0  0  0  0  0  0
    1.5890    0.0907   -2.3917 C   0  0  0  0  0  0
    2.2901    0.1311   -3.6379 C   0  0  0  0  0  0
    3.7139    0.1121   -3.5603 C   0  0  0  0  0  0
    4.3757    0.0686   -2.3891 C   0  0  0  0  0  0
    1.6602    0.1829   -4.7802 N   0  3  0  0  0  0
    0.3294    0.8277   -4.9610 C   0  0  0  0  0  0
    0.3425    1.8539   -6.1109 C   0  0  0  0  0  0
    0.8802    1.2650   -7.3556 N   0  3  0  0  0  0
    2.2228    0.6764   -7.1710 C   0  0  0  0  0  0
    2.1951   -0.3768   -6.0521 C   0  0  0  0  0  0
    4.1930   -0.0578    2.7086 C   0  0  0  0  0  0
    4.3949    1.0571    3.2373 O   0  0  0  0  0  0
    4.4588   -1.1894    3.1692 O   0  5  0  0  0  0
   -1.7567    1.1604    0.1153 H   0  0  0  0  0  0
   -0.4446    1.7816   -0.8828 H   0  0  0  0  0  0
   -0.3415    1.8833    0.8738 H   0  0  0  0  0  0
   -0.2845   -0.6237    1.0166 H   0  0  0  0  0  0
   -0.3753   -0.7594   -0.7056 H   0  0  0  0  0  0
    1.5563   -0.0529    2.1057 H   0  0  0  0  0  0
    0.5136    0.0726   -2.4537 H   0  0  0  0  0  0
    4.2847    0.1752   -4.4737 H   0  0  0  0  0  0
    5.4557    0.0761   -2.4067 H   0  0  0  0  0  0
   -0.3846    0.0266   -5.1561 H   0  0  0  0  0  0
    0.0305    1.3323   -4.0427 H   0  0  0  0  0  0
   -0.6647    2.2276   -6.2969 H   0  0  0  0  0  0
    0.9542    2.7140   -5.8350 H   0  0  0  0  0  0
    2.5478    0.2258   -8.1089 H   0  0  0  0  0  0
    2.9355    1.4664   -6.9307 H   0  0  0  0  0  0
    3.1743   -0.8267   -5.8975 H   0  0  0  0  0  0
    1.5248   -1.1925   -6.3264 H   0  0  0  0  0  0
    0.2502    0.5396   -7.6680 H   0  0  0  0  0  0
    5.9607    0.0103   -0.7533 H   0  0  0  0  0  0
    0.9278    1.9814   -8.0665 H   0  0  0  0  0  0
  1  2  1  0  0  0
  1 23  1  0  0  0
  1 24  1  0  0  0
  1 25  1  0  0  0
  2  3  1  0  0  0
  2 26  1  0  0  0
  2 27  1  0  0  0
  3  9  1  0  0  0
  3  4  1  0  0  0
  4  5  2  0  0  0
  4 28  1  0  0  0
  5  6  1  0  0  0
  5 20  1  0  0  0
  6  7  1  0  0  0
  6  8  2  0  0  0
  7 41  1  0  0  0
  8 13  1  0  0  0
  8  9  1  0  0  0
  9 10  2  0  0  0
 10 11  1  0  0  0
 10 29  1  0  0  0
 11 12  1  0  0  0
 11 14  2  0  0  0
 12 13  2  0  0  0
 12 30  1  0  0  0
 13 31  1  0  0  0
 14 19  1  0  0  0
 14 15  1  0  0  0
 15 16  1  0  0  0
 15 32  1  0  0  0
 15 33  1  0  0  0
 16 17  1  0  0  0
 16 34  1  0  0  0
 16 35  1  0  0  0
 17 18  1  0  0  0
 17 40  1  0  0  0
 17 42  1  0  0  0
 18 19  1  0  0  0
 18 36  1  0  0  0
 18 37  1  0  0  0
 19 38  1  0  0  0
 19 39  1  0  0  0
 20 21  2  0  0  0
 20 22  1  0  0  0
M  CHG  3  14   1  17   1  22  -1
M  END
> <s_m_entry_id>
15

> <s_m_entry_name>
biosynth_p1.0.sdf.8

> <s_m_Source_Path>
/Users/Sebastito/Downloads

> <s_m_Source_File>
biosynth_p1.0.sdf.gz

> <i_m_Source_File_Index>
8

> <chiral flag>
0

> <version>
0

> <i_m_ct_enhanced_stereo_status>
0

> <s_m_source_file>
ligprep_vs.maegz

> <i_m_source_file_index>
8

> <i_lp_mmshare_version>
37011

> <r_epik_Ionization_Penalty>
1.44494

> <r_epik_Ionization_Penalty_Charging>
0.00857236

> <r_epik_Ionization_Penalty_Neutral>
1.43636

> <r_epik_State_Penalty>
2.63818

> <r_epik_Charging_Adjusted_Penalty>
2.64675

> <i_epik_Tot_Q>
1

> <i_epik_Tot_abs_Q>
3

> <s_epik_Chemistry_Notes>
This compound has an imine and may undergo hydrolysis.

> <i_f3d_flags>
0

> <s_lp_Force_Field>
OPLS_2005

> <r_lp_Energy>
39.634

> <b_lp_Chiralities_Consistent>
1

> <s_lp_Variant>
ZINC28767194-3

$$$$
ZINC11422512
                    3D
 Structure written by MMmdl.
 37 38  0  0  1  0            999 V2000
   -1.0624    4.5610   -2.7658 C   0  0  0  0  0  0
   -1.5410    3.8177   -1.5292 C   0  0  0  0  0  0
   -1.7265    2.4727   -1.5155 C   0  0  0  0  0  0
   -2.1644    1.7608   -0.4022 N   0  0  0  0  0  0
   -2.4332    2.4652    0.7912 C   0  0  0  0  0  0
   -2.8267    1.9134    1.8186 O   0  0  0  0  0  0
   -2.2431    3.8450    0.7771 N   0  0  0  0  0  0
   -2.4238    4.3406    1.6374 H   0  0  0  0  0  0
   -1.8061    4.5935   -0.3162 C   0  0  0  0  0  0
   -1.6771    5.8121   -0.2073 O   0  0  0  0  0  0
   -2.2853    0.2429   -0.3492 C   0  0  1  0  0  0
   -3.2755    0.0542    0.0693 H   0  0  0  0  0  0
   -2.0823   -0.4802   -1.6778 C   0  0  0  0  0  0
   -0.5642   -0.6123   -1.7539 C   0  0  1  0  0  0
   -0.1284    0.2464   -2.2625 H   0  0  0  0  0  0
   -0.1189   -0.6025   -0.2789 C   0  0  2  0  0  0
    0.1749   -1.6101    0.0174 H   0  0  0  0  0  0
   -1.2786   -0.2479    0.4774 O   0  0  0  0  0  0
    1.0468    0.3716   -0.0113 C   0  0  0  0  0  0
    1.7922    0.0518    1.1576 O   0  0  0  0  0  0
    1.1347    0.4216    2.6200 P   0  0  0  0  0  0
    2.3144    0.4742    3.5701 O   0  0  0  0  0  0
    0.4500    1.7681    2.4793 O   0  5  0  0  0  0
    0.1751   -0.7026    2.9575 O   0  5  0  0  0  0
   -0.1469   -1.8037   -2.4106 O   0  0  0  0  0  0
   -0.5448   -1.9674   -4.0006 P   0  0  0  0  0  0
    0.5150   -2.8807   -4.5827 O   0  0  0  0  0  0
   -1.9258   -2.5930   -4.0209 O   0  5  0  0  0  0
   -0.5205   -0.5826   -4.6213 O   0  5  0  0  0  0
   -0.8737    3.8831   -3.5989 H   0  0  0  0  0  0
   -0.1344    5.0934   -2.5541 H   0  0  0  0  0  0
   -1.8101    5.2867   -3.0873 H   0  0  0  0  0  0
   -1.5224    1.9582   -2.4388 H   0  0  0  0  0  0
   -2.5309   -1.4692   -1.5770 H   0  0  0  0  0  0
   -2.5611    0.0166   -2.5210 H   0  0  0  0  0  0
    1.7591    0.2965   -0.8329 H   0  0  0  0  0  0
    0.7093    1.4081   -0.0093 H   0  0  0  0  0  0
  1  2  1  0  0  0
  1 30  1  0  0  0
  1 31  1  0  0  0
  1 32  1  0  0  0
  2  9  1  0  0  0
  2  3  2  0  0  0
  3  4  1  0  0  0
  3 33  1  0  0  0
  4  5  1  0  0  0
  4 11  1  0  0  0
  5  6  2  0  0  0
  5  7  1  0  0  0
  7  8  1  0  0  0
  7  9  1  0  0  0
  9 10  2  0  0  0
 11 12  1  0  0  0
 11 18  1  0  0  0
 11 13  1  0  0  0
 13 14  1  0  0  0
 13 34  1  0  0  0
 13 35  1  0  0  0
 14 15  1  0  0  0
 14 16  1  0  0  0
 14 25  1  0  0  0
 16 17  1  0  0  0
 16 18  1  0  0  0
 16 19  1  0  0  0
 19 20  1  0  0  0
 19 36  1  0  0  0
 19 37  1  0  0  0
 20 21  1  0  0  0
 21 22  2  0  0  0
 21 23  1  0  0  0
 21 24  1  0  0  0
 25 26  1  0  0  0
 26 27  2  0  0  0
 26 28  1  0  0  0
 26 29  1  0  0  0
M  CHG  4  23  -1  24  -1  28  -1  29  -1
M  END
> <s_m_entry_id>
16

> <s_m_entry_name>
biosynth_p1.0.sdf.9

> <s_m_Source_Path>
/Users/Sebastito/Downloads

> <s_m_Source_File>
biosynth_p1.0.sdf.gz

> <i_m_Source_File_Index>
9

> <chiral flag>
1

> <version>
0

> <i_m_ct_enhanced_stereo_status>
0

> <s_m_source_file>
ligprep_vs.maegz

> <i_m_source_file_index>
9

> <i_lp_mmshare_version>
37011

> <r_lp_tautomer_probability>
0.999537

> <r_epik_Ionization_Penalty>
0.212035

> <r_epik_Ionization_Penalty_Charging>
0.212035

> <r_epik_Ionization_Penalty_Neutral>
3.33369e-13

> <r_epik_State_Penalty>
0.190292

> <r_epik_Charging_Adjusted_Penalty>
0.402327

> <i_epik_Tot_Q>
-4

> <i_epik_Tot_abs_Q>
4

> <s_epik_Chemistry_Notes>
This compound contains an acetal/aminal-like group ( X-CH(R)-Y where X, Y are N, S, or O) that may be acid/base labile, releasing an aldehyde.

> <i_f3d_flags>
0

> <s_lp_Force_Field>
OPLS_2005

> <r_lp_Energy>
7.78749

> <b_lp_Chiralities_Consistent>
1

> <s_lp_Variant>
ZINC11422512-1

$$$$
ZINC11422512
                    3D
 Structure written by MMmdl.
 38 39  0  0  1  0            999 V2000
    2.4782    5.2066   -1.2015 C   0  0  0  0  0  0
    1.1205    4.6023   -1.5205 C   0  0  0  0  0  0
    0.7675    3.3551   -1.1167 C   0  0  0  0  0  0
   -0.4652    2.7753   -1.3917 N   0  0  0  0  0  0
   -1.4196    3.5050   -2.1295 C   0  0  0  0  0  0
   -2.5307    3.0571   -2.4099 O   0  0  0  0  0  0
   -1.0578    4.7857   -2.5452 N   0  0  0  0  0  0
   -1.7393    5.3101   -3.0746 H   0  0  0  0  0  0
    0.1682    5.4053   -2.2924 C   0  0  0  0  0  0
    0.3722    6.5424   -2.7145 O   0  0  0  0  0  0
   -0.8265    1.3775   -0.9320 C   0  0  1  0  0  0
   -1.8111    1.4492   -0.4658 H   0  0  0  0  0  0
   -0.7697    0.3860   -2.0969 C   0  0  0  0  0  0
   -0.2160   -0.8581   -1.4279 C   0  0  1  0  0  0
    0.3349   -1.4854   -2.1309 H   0  0  0  0  0  0
    0.7040   -0.2866   -0.3484 C   0  0  2  0  0  0
    0.7451   -0.9653    0.5032 H   0  0  0  0  0  0
    0.0914    0.9460    0.0309 O   0  0  0  0  0  0
    2.1287   -0.0093   -0.8701 C   0  0  0  0  0  0
    2.9636    0.6232    0.0870 O   0  0  0  0  0  0
    3.2422   -0.0101    1.6438 P   0  0  0  0  0  0
    3.3475   -1.4824    1.5435 O   0  0  0  0  0  0
    4.3451    0.7628    2.2555 O   0  5  0  0  0  0
    1.8186    0.3656    2.4816 O   0  0  0  0  0  0
   -1.2464   -1.6036   -0.7927 O   0  0  0  0  0  0
   -1.8873   -2.8446   -1.6576 P   0  0  0  0  0  0
   -3.0775   -3.3213   -0.8496 O   0  0  0  0  0  0
   -2.2863   -2.2751   -3.0052 O   0  5  0  0  0  0
   -0.7941   -3.8900   -1.7612 O   0  5  0  0  0  0
    3.0958    4.5282   -0.6120 H   0  0  0  0  0  0
    2.3605    6.1291   -0.6319 H   0  0  0  0  0  0
    3.0183    5.4363   -2.1205 H   0  0  0  0  0  0
    1.4978    2.7981   -0.5509 H   0  0  0  0  0  0
   -1.7505    0.2575   -2.5540 H   0  0  0  0  0  0
   -0.0725    0.7475   -2.8540 H   0  0  0  0  0  0
    2.5999   -0.9444   -1.1739 H   0  0  0  0  0  0
    2.0971    0.6239   -1.7565 H   0  0  0  0  0  0
    1.0928    0.2379    1.8900 H   0  0  0  0  0  0
  1  2  1  0  0  0
  1 30  1  0  0  0
  1 31  1  0  0  0
  1 32  1  0  0  0
  2  9  1  0  0  0
  2  3  2  0  0  0
  3  4  1  0  0  0
  3 33  1  0  0  0
  4  5  1  0  0  0
  4 11  1  0  0  0
  5  6  2  0  0  0
  5  7  1  0  0  0
  7  8  1  0  0  0
  7  9  1  0  0  0
  9 10  2  0  0  0
 11 12  1  0  0  0
 11 18  1  0  0  0
 11 13  1  0  0  0
 13 14  1  0  0  0
 13 34  1  0  0  0
 13 35  1  0  0  0
 14 15  1  0  0  0
 14 16  1  0  0  0
 14 25  1  0  0  0
 16 17  1  0  0  0
 16 18  1  0  0  0
 16 19  1  0  0  0
 19 20  1  0  0  0
 19 36  1  0  0  0
 19 37  1  0  0  0
 20 21  1  0  0  0
 21 22  2  0  0  0
 21 23  1  0  0  0
 21 24  1  0  0  0
 24 38  1  0  0  0
 25 26  1  0  0  0
 26 27  2  0  0  0
 26 28  1  0  0  0
 26 29  1  0  0  0
M  CHG  3  23  -1  28  -1  29  -1
M  END
> <s_m_entry_id>
16

> <s_m_entry_name>
biosynth_p1.0.sdf.9

> <s_m_Source_Path>
/Users/Sebastito/Downloads

> <s_m_Source_File>
biosynth_p1.0.sdf.gz

> <i_m_Source_File_Index>
9

> <chiral flag>
1

> <version>
0

> <i_m_ct_enhanced_stereo_status>
0

> <s_m_source_file>
ligprep_vs.maegz

> <i_m_source_file_index>
9

> <i_lp_mmshare_version>
37011

> <r_lp_tautomer_probability>
0.999537

> <r_epik_Ionization_Penalty>
1.15677

> <r_epik_Ionization_Penalty_Charging>
0.0977236

> <r_epik_Ionization_Penalty_Neutral>
1.05905

> <r_epik_State_Penalty>
1.20457

> <r_epik_Charging_Adjusted_Penalty>
1.30229

> <i_epik_Tot_Q>
-3

> <i_epik_Tot_abs_Q>
3

> <s_epik_Chemistry_Notes>
This compound contains an acetal/aminal-like group ( X-CH(R)-Y where X, Y are N, S, or O) that may be acid/base labile, releasing an aldehyde.

> <i_f3d_flags>
0

> <s_lp_Force_Field>
OPLS_2005

> <r_lp_Energy>
5.18675

> <b_lp_Chiralities_Consistent>
1

> <s_lp_Variant>
ZINC11422512-2

$$$$
ZINC11422512
                    3D
 Structure written by MMmdl.
 38 39  0  0  1  0            999 V2000
   -5.9736   -0.5787   -1.5867 C   0  0  0  0  0  0
   -4.7122   -1.4019   -1.7865 C   0  0  0  0  0  0
   -3.5203   -1.0462   -1.2441 C   0  0  0  0  0  0
   -2.3488   -1.7776   -1.3900 N   0  0  0  0  0  0
   -2.4017   -3.0173   -2.0648 C   0  0  0  0  0  0
   -1.4363   -3.7729   -2.1733 O   0  0  0  0  0  0
   -3.6209   -3.3764   -2.6383 N   0  0  0  0  0  0
   -3.6537   -4.2519   -3.1386 H   0  0  0  0  0  0
   -4.8046   -2.6392   -2.5640 C   0  0  0  0  0  0
   -5.8173   -3.0576   -3.1240 O   0  0  0  0  0  0
   -1.0867   -1.3705   -0.6569 C   0  0  1  0  0  0
   -0.2741   -2.0208   -0.9835 H   0  0  0  0  0  0
   -0.6931    0.0937   -0.8484 C   0  0  0  0  0  0
    0.1409    0.3234    0.4025 C   0  0  1  0  0  0
    0.0996    1.3635    0.7288 H   0  0  0  0  0  0
   -0.4869   -0.6392    1.4284 C   0  0  2  0  0  0
    0.3025   -1.2053    1.9244 H   0  0  0  0  0  0
   -1.2936   -1.5656    0.7030 O   0  0  0  0  0  0
   -1.3282    0.0540    2.5123 C   0  0  0  0  0  0
   -2.3537    0.8432    1.9255 O   0  0  0  0  0  0
   -3.8952    0.4371    2.3197 P   0  0  0  0  0  0
   -4.7741    1.3297    1.4666 O   0  0  0  0  0  0
   -4.0617   -1.0333    1.9887 O   0  5  0  0  0  0
   -4.0333    0.7257    3.8021 O   0  5  0  0  0  0
    1.5012   -0.0447    0.2246 O   0  0  0  0  0  0
    2.5116    0.6947   -0.9298 P   0  0  0  0  0  0
    2.1582    2.1279   -1.0319 O   0  0  0  0  0  0
    4.0344    0.5841   -0.1984 O   0  0  0  0  0  0
    2.5305   -0.1499   -2.1446 O   0  5  0  0  0  0
   -5.7789    0.3234   -1.0058 H   0  0  0  0  0  0
   -6.7262   -1.1604   -1.0537 H   0  0  0  0  0  0
   -6.3884   -0.2737   -2.5478 H   0  0  0  0  0  0
   -3.5002   -0.1522   -0.6420 H   0  0  0  0  0  0
   -0.1735    0.2459   -1.7933 H   0  0  0  0  0  0
   -1.5598    0.7497   -0.8229 H   0  0  0  0  0  0
   -1.7221   -0.6900    3.2064 H   0  0  0  0  0  0
   -0.6945    0.7154    3.1032 H   0  0  0  0  0  0
    4.6432    1.0734   -0.7291 H   0  0  0  0  0  0
  1  2  1  0  0  0
  1 30  1  0  0  0
  1 31  1  0  0  0
  1 32  1  0  0  0
  2  9  1  0  0  0
  2  3  2  0  0  0
  3  4  1  0  0  0
  3 33  1  0  0  0
  4  5  1  0  0  0
  4 11  1  0  0  0
  5  6  2  0  0  0
  5  7  1  0  0  0
  7  8  1  0  0  0
  7  9  1  0  0  0
  9 10  2  0  0  0
 11 12  1  0  0  0
 11 18  1  0  0  0
 11 13  1  0  0  0
 13 14  1  0  0  0
 13 34  1  0  0  0
 13 35  1  0  0  0
 14 15  1  0  0  0
 14 16  1  0  0  0
 14 25  1  0  0  0
 16 17  1  0  0  0
 16 18  1  0  0  0
 16 19  1  0  0  0
 19 20  1  0  0  0
 19 36  1  0  0  0
 19 37  1  0  0  0
 20 21  1  0  0  0
 21 22  2  0  0  0
 21 23  1  0  0  0
 21 24  1  0  0  0
 25 26  1  0  0  0
 26 27  2  0  0  0
 26 28  1  0  0  0
 26 29  1  0  0  0
 28 38  1  0  0  0
M  CHG  3  23  -1  24  -1  29  -1
M  END
> <s_m_entry_id>
16

> <s_m_entry_name>
biosynth_p1.0.sdf.9

> <s_m_Source_Path>
/Users/Sebastito/Downloads

> <s_m_Source_File>
biosynth_p1.0.sdf.gz

> <i_m_Source_File_Index>
9

> <chiral flag>
1

> <version>
0

> <i_m_ct_enhanced_stereo_status>
0

> <s_m_source_file>
ligprep_vs.maegz

> <i_m_source_file_index>
9

> <i_lp_mmshare_version>
37011

> <r_epik_Ionization_Penalty>
1.19476

> <r_epik_Ionization_Penalty_Charging>
0.10363

> <r_epik_Ionization_Penalty_Neutral>
1.09113

> <r_epik_State_Penalty>
1.24546

> <r_epik_Charging_Adjusted_Penalty>
1.34909

> <i_epik_Tot_Q>
-3

> <i_epik_Tot_abs_Q>
3

> <s_epik_Chemistry_Notes>
This compound contains an acetal/aminal-like group ( X-CH(R)-Y where X, Y are N, S, or O) that may be acid/base labile, releasing an aldehyde.

> <i_f3d_flags>
0

> <s_lp_Force_Field>
OPLS_2005

> <r_lp_Energy>
8.90645

> <b_lp_Chiralities_Consistent>
1

> <s_lp_Variant>
ZINC11422512-3

$$$$
ZINC11422512
                    3D
 Structure written by MMmdl.
 39 40  0  0  1  0            999 V2000
   -1.5250    5.5675   -2.3955 C   0  0  0  0  0  0
   -2.3189    4.5060   -1.6524 C   0  0  0  0  0  0
   -1.8200    3.2695   -1.3974 C   0  0  0  0  0  0
   -2.5188    2.2789   -0.7225 N   0  0  0  0  0  0
   -3.8133    2.5559   -0.2349 C   0  0  0  0  0  0
   -4.4906    1.7403    0.3894 O   0  0  0  0  0  0
   -4.3282    3.8243   -0.4996 N   0  0  0  0  0  0
   -5.2577    4.0247   -0.1603 H   0  0  0  0  0  0
   -3.6692    4.8431   -1.1926 C   0  0  0  0  0  0
   -4.2341    5.9215   -1.3692 O   0  0  0  0  0  0
   -1.8682    0.9421   -0.4530 C   0  0  1  0  0  0
   -2.4832    0.3809    0.2522 H   0  0  0  0  0  0
   -1.6018    0.1629   -1.7382 C   0  0  0  0  0  0
   -0.3199   -0.5913   -1.3985 C   0  0  1  0  0  0
    0.4180   -0.4458   -2.1890 H   0  0  0  0  0  0
    0.1575    0.0088   -0.0633 C   0  0  2  0  0  0
   -0.0632   -0.6882    0.7472 H   0  0  0  0  0  0
   -0.6324    1.1750    0.1292 O   0  0  0  0  0  0
    1.6448    0.3762   -0.0503 C   0  0  0  0  0  0
    2.0356    0.6776    1.2726 O   0  0  0  0  0  0
    3.5951    1.2534    1.6122 P   0  0  0  0  0  0
    4.5715    0.1998    1.2581 O   0  0  0  0  0  0
    3.7303    2.6098    1.0367 O   0  5  0  0  0  0
    3.5673    1.4008    3.2982 O   0  0  0  0  0  0
   -0.5698   -1.9744   -1.2219 O   0  0  0  0  0  0
   -0.7389   -3.0343   -2.5426 P   0  0  0  0  0  0
    0.5280   -3.0385   -3.3066 O   0  0  0  0  0  0
   -0.8892   -4.5333   -1.7702 O   0  0  0  0  0  0
   -2.0159   -2.7410   -3.2299 O   0  5  0  0  0  0
   -0.5314    5.2108   -2.6683 H   0  0  0  0  0  0
   -1.4015    6.4563   -1.7757 H   0  0  0  0  0  0
   -2.0400    5.8565   -3.3121 H   0  0  0  0  0  0
   -0.8185    3.0404   -1.7345 H   0  0  0  0  0  0
   -2.4544   -0.4716   -1.9783 H   0  0  0  0  0  0
   -1.4259    0.8444   -2.5703 H   0  0  0  0  0  0
    2.2436   -0.4651   -0.4014 H   0  0  0  0  0  0
    1.8448    1.2211   -0.7104 H   0  0  0  0  0  0
   -0.0654   -4.7226   -1.3491 H   0  0  0  0  0  0
    4.1545    2.1017    3.5343 H   0  0  0  0  0  0
  1  2  1  0  0  0
  1 30  1  0  0  0
  1 31  1  0  0  0
  1 32  1  0  0  0
  2  9  1  0  0  0
  2  3  2  0  0  0
  3  4  1  0  0  0
  3 33  1  0  0  0
  4  5  1  0  0  0
  4 11  1  0  0  0
  5  6  2  0  0  0
  5  7  1  0  0  0
  7  8  1  0  0  0
  7  9  1  0  0  0
  9 10  2  0  0  0
 11 12  1  0  0  0
 11 18  1  0  0  0
 11 13  1  0  0  0
 13 14  1  0  0  0
 13 34  1  0  0  0
 13 35  1  0  0  0
 14 15  1  0  0  0
 14 16  1  0  0  0
 14 25  1  0  0  0
 16 17  1  0  0  0
 16 18  1  0  0  0
 16 19  1  0  0  0
 19 20  1  0  0  0
 19 36  1  0  0  0
 19 37  1  0  0  0
 20 21  1  0  0  0
 21 22  2  0  0  0
 21 23  1  0  0  0
 21 24  1  0  0  0
 24 39  1  0  0  0
 25 26  1  0  0  0
 26 27  2  0  0  0
 26 28  1  0  0  0
 26 29  1  0  0  0
 28 38  1  0  0  0
M  CHG  2  23  -1  29  -1
M  END
> <s_m_entry_id>
16

> <s_m_entry_name>
biosynth_p1.0.sdf.9

> <s_m_Source_Path>
/Users/Sebastito/Downloads

> <s_m_Source_File>
biosynth_p1.0.sdf.gz

> <i_m_Source_File_Index>
9

> <chiral flag>
1

> <version>
0

> <i_m_ct_enhanced_stereo_status>
0

> <s_m_source_file>
ligprep_vs.maegz

> <i_m_source_file_index>
9

> <i_lp_mmshare_version>
37011

> <r_lp_tautomer_probability>
0.999537

> <r_epik_Ionization_Penalty>
2.21609

> <r_epik_Ionization_Penalty_Charging>
0.00145843

> <r_epik_Ionization_Penalty_Neutral>
2.21463

> <r_epik_State_Penalty>
2.30061

> <r_epik_Charging_Adjusted_Penalty>
2.30207

> <i_epik_Tot_Q>
-2

> <i_epik_Tot_abs_Q>
2

> <s_epik_Chemistry_Notes>
This compound contains an acetal/aminal-like group ( X-CH(R)-Y where X, Y are N, S, or O) that may be acid/base labile, releasing an aldehyde.

> <i_f3d_flags>
0

> <s_lp_Force_Field>
OPLS_2005

> <r_lp_Energy>
3.18389

> <b_lp_Chiralities_Consistent>
1

> <s_lp_Variant>
ZINC11422512-4

$$$$
ZINC08214590
                    3D
 Structure written by MMmdl.
 73 75  0  0  1  0            999 V2000
   -2.4567    0.9197   -0.9333 C   0  0  0  0  0  0
   -0.9348    0.8324   -1.1009 C   0  0  2  0  0  0
   -0.6882   -0.1620   -1.4769 H   0  0  0  0  0  0
   -0.1996    1.0593    0.2367 C   0  0  1  0  0  0
   -0.2955    2.1132    0.5067 H   0  0  0  0  0  0
   -0.7614    0.1566    1.3726 C   0  0  2  0  0  0
   -0.3665   -0.8534    1.2629 H   0  0  0  0  0  0
   -2.3094    0.0871    1.4557 C   0  0  1  0  0  0
   -2.6977    1.0046    1.9025 H   0  0  0  0  0  0
   -2.9617   -0.1243    0.0711 C   0  0  1  0  0  0
   -2.7008   -1.1176   -0.2973 H   0  0  0  0  0  0
   -4.4333   -0.0568    0.1507 N   0  3  0  0  0  0
   -2.5767   -1.0697    2.2472 O   0  0  0  0  0  0
   -3.6195   -0.9976    3.1786 C   0  0  2  0  0  0
   -4.4270   -0.3601    2.8180 H   0  0  0  0  0  0
   -3.1006   -0.5137    4.5508 C   0  0  1  0  0  0
   -3.9323   -0.5946    5.2529 H   0  0  0  0  0  0
   -1.9631   -1.4430    5.0086 C   0  0  2  0  0  0
   -1.1035   -1.3601    4.3426 H   0  0  0  0  0  0
   -2.4921   -2.8912    5.0572 C   0  0  1  0  0  0
   -3.1664   -3.0085    5.9072 H   0  0  0  0  0  0
   -3.2380   -3.2821    3.7541 C   0  0  2  0  0  0
   -2.5113   -3.4138    2.9499 H   0  0  0  0  0  0
   -4.1758   -2.2629    3.3820 O   0  0  0  0  0  0
   -4.0315   -4.5907    3.9203 C   0  0  0  0  0  0
   -4.5384   -5.0888    2.6300 N   0  3  0  0  0  0
   -1.3865   -3.7597    5.2123 O   0  0  0  0  0  0
   -1.5746   -1.0731    6.3186 O   0  0  0  0  0  0
   -2.7421    0.8527    4.5342 O   0  0  0  0  0  0
   -0.3470    0.7129    2.6038 O   0  0  0  0  0  0
    1.1576    0.7283   -0.0725 O   0  0  0  0  0  0
    2.1351    1.1383    0.8394 C   0  0  2  0  0  0
    1.8549    2.0906    1.2932 H   0  0  0  0  0  0
    3.4804    1.2887    0.1033 C   0  0  1  0  0  0
    4.2173    1.6102    0.8415 H   0  0  0  0  0  0
    3.9062   -0.0707   -0.4830 C   0  0  2  0  0  0
    3.1964   -0.3758   -1.2537 H   0  0  0  0  0  0
    3.9408   -1.1212    0.6465 C   0  0  1  0  0  0
    4.7677   -0.9112    1.3268 H   0  0  0  0  0  0
    2.6105   -1.1248    1.4367 C   0  0  2  0  0  0
    1.8172   -1.4973    0.7865 H   0  0  0  0  0  0
    2.3248    0.2096    1.8648 O   0  0  0  0  0  0
    2.6675   -1.9878    2.7100 C   0  0  0  0  0  0
    1.3571   -2.3120    3.1259 O   0  0  0  0  0  0
    4.1356   -2.3941    0.0597 O   0  0  0  0  0  0
    5.2377    0.0395   -1.1102 N   0  3  0  0  0  0
    3.4133    2.3029   -0.8796 O   0  0  0  0  0  0
   -0.4836    1.8063   -2.1145 N   0  3  0  0  0  0
   -2.9398    0.7619   -1.8990 H   0  0  0  0  0  0
   -2.7390    1.9216   -0.6046 H   0  0  0  0  0  0
   -4.7170    0.8566    0.4764 H   0  0  0  0  0  0
   -3.3978   -5.3691    4.3459 H   0  0  0  0  0  0
   -4.8666   -4.4494    4.6073 H   0  0  0  0  0  0
   -5.0535   -5.9450    2.7791 H   0  0  0  0  0  0
   -0.9284   -3.5204    6.0045 H   0  0  0  0  0  0
   -2.3352   -1.0909    6.8791 H   0  0  0  0  0  0
   -3.5255    1.3720    4.4368 H   0  0  0  0  0  0
    0.5907    0.6156    2.6805 H   0  0  0  0  0  0
    3.1857   -2.9276    2.5193 H   0  0  0  0  0  0
    3.2060   -1.4809    3.5115 H   0  0  0  0  0  0
    1.4124   -2.8320    3.9138 H   0  0  0  0  0  0
    4.1569   -3.0449    0.7455 H   0  0  0  0  0  0
    5.9188    0.3133   -0.4169 H   0  0  0  0  0  0
    3.2527    3.1299   -0.4500 H   0  0  0  0  0  0
   -0.7064    2.7441   -1.8122 H   0  0  0  0  0  0
   -3.7621   -5.2695    2.0095 H   0  0  0  0  0  0
   -0.9440    1.6208   -2.9946 H   0  0  0  0  0  0
   -4.7697   -0.7609    0.7921 H   0  0  0  0  0  0
    5.2067    0.7330   -1.8440 H   0  0  0  0  0  0
   -5.1480   -4.3977    2.2170 H   0  0  0  0  0  0
   -4.8302   -0.2224   -0.7637 H   0  0  0  0  0  0
    5.4969   -0.8555   -1.5005 H   0  0  0  0  0  0
    0.5159    1.7244   -2.2384 H   0  0  0  0  0  0
  1 10  1  0  0  0
  1  2  1  0  0  0
  1 49  1  0  0  0
  1 50  1  0  0  0
  2  3  1  0  0  0
  2  4  1  0  0  0
  2 48  1  0  0  0
  4  5  1  0  0  0
  4  6  1  0  0  0
  4 31  1  0  0  0
  6  7  1  0  0  0
  6  8  1  0  0  0
  6 30  1  0  0  0
  8  9  1  0  0  0
  8 10  1  0  0  0
  8 13  1  0  0  0
 10 11  1  0  0  0
 10 12  1  0  0  0
 12 51  1  0  0  0
 12 68  1  0  0  0
 12 71  1  0  0  0
 13 14  1  0  0  0
 14 15  1  0  0  0
 14 24  1  0  0  0
 14 16  1  0  0  0
 16 17  1  0  0  0
 16 18  1  0  0  0
 16 29  1  0  0  0
 18 19  1  0  0  0
 18 20  1  0  0  0
 18 28  1  0  0  0
 20 21  1  0  0  0
 20 22  1  0  0  0
 20 27  1  0  0  0
 22 23  1  0  0  0
 22 24  1  0  0  0
 22 25  1  0  0  0
 25 26  1  0  0  0
 25 52  1  0  0  0
 25 53  1  0  0  0
 26 54  1  0  0  0
 26 66  1  0  0  0
 26 70  1  0  0  0
 27 55  1  0  0  0
 28 56  1  0  0  0
 29 57  1  0  0  0
 30 58  1  0  0  0
 31 32  1  0  0  0
 32 33  1  0  0  0
 32 42  1  0  0  0
 32 34  1  0  0  0
 34 35  1  0  0  0
 34 36  1  0  0  0
 34 47  1  0  0  0
 36 37  1  0  0  0
 36 38  1  0  0  0
 36 46  1  0  0  0
 38 39  1  0  0  0
 38 40  1  0  0  0
 38 45  1  0  0  0
 40 41  1  0  0  0
 40 42  1  0  0  0
 40 43  1  0  0  0
 43 44  1  0  0  0
 43 59  1  0  0  0
 43 60  1  0  0  0
 44 61  1  0  0  0
 45 62  1  0  0  0
 46 63  1  0  0  0
 46 69  1  0  0  0
 46 72  1  0  0  0
 47 64  1  0  0  0
 48 65  1  0  0  0
 48 67  1  0  0  0
 48 73  1  0  0  0
M  CHG  4  12   1  26   1  46   1  48   1
M  END
> <s_m_entry_id>
17

> <s_m_entry_name>
biosynth_p1.0.sdf.10

> <s_m_Source_Path>
/Users/Sebastito/Downloads

> <s_m_Source_File>
biosynth_p1.0.sdf.gz

> <i_m_Source_File_Index>
10

> <chiral flag>
1

> <version>
0

> <i_m_ct_enhanced_stereo_status>
0

> <s_m_source_file>
ligprep_vs.maegz

> <i_m_source_file_index>
10

> <i_lp_mmshare_version>
37011

> <r_epik_Ionization_Penalty>
0.19103

> <r_epik_Ionization_Penalty_Charging>
0.190702

> <r_epik_Ionization_Penalty_Neutral>
0.000327683

> <r_epik_State_Penalty>
0.14833

> <r_epik_Charging_Adjusted_Penalty>
0.339032

> <i_epik_Tot_Q>
4

> <i_epik_Tot_abs_Q>
4

> <s_epik_Chemistry_Notes>
This compound contains an acetal/aminal-like group ( X-CH(R)-Y where X, Y are N, S, or O) that may be acid/base labile, releasing an aldehyde.

> <i_f3d_flags>
0

> <s_lp_Force_Field>
OPLS_2005

> <r_lp_Energy>
90.5067

> <b_lp_Chiralities_Consistent>
1

> <s_lp_Variant>
ZINC08214590-1

$$$$
ZINC08214590
                    3D
 Structure written by MMmdl.
 72 74  0  0  1  0            999 V2000
   -1.8771   -0.6647   -0.7866 C   0  0  0  0  0  0
   -0.3425   -0.6909   -0.7970 C   0  0  2  0  0  0
   -0.0377   -1.7346   -0.7252 H   0  0  0  0  0  0
    0.2240    0.1024    0.4060 C   0  0  1  0  0  0
    0.0183    1.1587    0.2217 H   0  0  0  0  0  0
   -0.4248   -0.2727    1.7665 C   0  0  2  0  0  0
   -0.0316   -1.2156    2.1434 H   0  0  0  0  0  0
   -1.9681   -0.3613    1.7298 C   0  0  1  0  0  0
   -2.3835    0.6475    1.6755 H   0  0  0  0  0  0
   -2.4695   -1.1901    0.5277 C   0  0  1  0  0  0
   -2.1704   -2.2310    0.6591 H   0  0  0  0  0  0
   -3.9400   -1.1507    0.4334 N   0  3  0  0  0  0
   -2.3055   -1.0501    2.9337 O   0  0  0  0  0  0
   -3.3908   -0.5598    3.6659 C   0  0  2  0  0  0
   -3.5453    0.5048    3.4836 H   0  0  0  0  0  0
   -3.1066   -0.7783    5.1640 C   0  0  1  0  0  0
   -3.9784   -0.4200    5.7144 H   0  0  0  0  0  0
   -2.9026   -2.2801    5.4352 C   0  0  2  0  0  0
   -1.9948   -2.6417    4.9494 H   0  0  0  0  0  0
   -4.1436   -3.0554    4.9498 C   0  0  1  0  0  0
   -4.9758   -2.8639    5.6285 H   0  0  0  0  0  0
   -4.5376   -2.6466    3.5070 C   0  0  2  0  0  0
   -3.7825   -3.0307    2.8189 H   0  0  0  0  0  0
   -4.5809   -1.2242    3.3530 O   0  0  0  0  0  0
   -5.8959   -3.2135    3.0476 C   0  0  0  0  0  0
   -7.0150   -2.7674    3.8989 N   0  3  0  0  0  0
   -3.8510   -4.4394    4.9550 O   0  0  0  0  0  0
   -2.7964   -2.4625    6.8342 O   0  0  0  0  0  0
   -2.0043   -0.0001    5.5849 O   0  0  0  0  0  0
   -0.0950    0.7596    2.6765 O   0  0  0  0  0  0
    1.6474   -0.0275    0.5094 O   0  0  0  0  0  0
    2.2187   -1.3062    0.5592 C   0  0  2  0  0  0
    1.5190   -2.0541    0.9302 H   0  0  0  0  0  0
    3.4518   -1.2545    1.4782 C   0  0  1  0  0  0
    3.8929   -2.2527    1.4858 H   0  0  0  0  0  0
    4.4689   -0.2473    0.9126 C   0  0  2  0  0  0
    4.0466    0.7588    0.9336 H   0  0  0  0  0  0
    4.8112   -0.6486   -0.5360 C   0  0  1  0  0  0
    5.3983   -1.5687   -0.5319 H   0  0  0  0  0  0
    3.5337   -0.8608   -1.3867 C   0  0  2  0  0  0
    3.0492    0.1030   -1.5545 H   0  0  0  0  0  0
    2.6431   -1.7434   -0.6978 O   0  0  0  0  0  0
    3.8475   -1.5218   -2.7419 C   0  0  0  0  0  0
    2.7739   -1.3338   -3.6381 O   0  0  0  0  0  0
    5.5846    0.3855   -1.1151 O   0  0  0  0  0  0
    5.6931   -0.2444    1.7373 N   0  3  0  0  0  0
    3.0794   -0.9599    2.8100 O   0  0  0  0  0  0
    0.1439   -0.1339   -2.0682 N   0  0  0  0  0  0
   -2.2528   -1.2600   -1.6205 H   0  0  0  0  0  0
   -2.2248    0.3558   -0.9589 H   0  0  0  0  0  0
   -4.2425   -0.2003    0.2721 H   0  0  0  0  0  0
   -6.0987   -2.9106    2.0200 H   0  0  0  0  0  0
   -5.8719   -4.3036    3.0534 H   0  0  0  0  0  0
   -7.8804   -3.1567    3.5522 H   0  0  0  0  0  0
   -3.0580   -4.5862    4.4618 H   0  0  0  0  0  0
   -2.0660   -1.9521    7.1508 H   0  0  0  0  0  0
   -1.2365   -0.2788    5.1094 H   0  0  0  0  0  0
   -0.4097    1.5817    2.3313 H   0  0  0  0  0  0
    4.7255   -1.0638   -3.1983 H   0  0  0  0  0  0
    4.0634   -2.5847   -2.6280 H   0  0  0  0  0  0
    2.0275   -1.8167   -3.3175 H   0  0  0  0  0  0
    5.0450    1.1573   -1.2010 H   0  0  0  0  0  0
    6.1034   -1.1671    1.7356 H   0  0  0  0  0  0
    2.6032   -0.1428    2.8167 H   0  0  0  0  0  0
    1.1616   -0.1713   -2.1129 H   0  0  0  0  0  0
   -7.0728   -1.7590    3.8877 H   0  0  0  0  0  0
   -0.2098   -0.6706   -2.8592 H   0  0  0  0  0  0
   -4.3428   -1.4888    1.2955 H   0  0  0  0  0  0
    5.4596    0.0177    2.6844 H   0  0  0  0  0  0
   -6.8654   -3.0838    4.8468 H   0  0  0  0  0  0
   -4.2449   -1.7327   -0.3341 H   0  0  0  0  0  0
    6.3532    0.4176    1.3548 H   0  0  0  0  0  0
  1 10  1  0  0  0
  1  2  1  0  0  0
  1 49  1  0  0  0
  1 50  1  0  0  0
  2  3  1  0  0  0
  2  4  1  0  0  0
  2 48  1  0  0  0
  4  5  1  0  0  0
  4  6  1  0  0  0
  4 31  1  0  0  0
  6  7  1  0  0  0
  6  8  1  0  0  0
  6 30  1  0  0  0
  8  9  1  0  0  0
  8 10  1  0  0  0
  8 13  1  0  0  0
 10 11  1  0  0  0
 10 12  1  0  0  0
 12 51  1  0  0  0
 12 68  1  0  0  0
 12 71  1  0  0  0
 13 14  1  0  0  0
 14 15  1  0  0  0
 14 24  1  0  0  0
 14 16  1  0  0  0
 16 17  1  0  0  0
 16 18  1  0  0  0
 16 29  1  0  0  0
 18 19  1  0  0  0
 18 20  1  0  0  0
 18 28  1  0  0  0
 20 21  1  0  0  0
 20 22  1  0  0  0
 20 27  1  0  0  0
 22 23  1  0  0  0
 22 24  1  0  0  0
 22 25  1  0  0  0
 25 26  1  0  0  0
 25 52  1  0  0  0
 25 53  1  0  0  0
 26 54  1  0  0  0
 26 66  1  0  0  0
 26 70  1  0  0  0
 27 55  1  0  0  0
 28 56  1  0  0  0
 29 57  1  0  0  0
 30 58  1  0  0  0
 31 32  1  0  0  0
 32 33  1  0  0  0
 32 42  1  0  0  0
 32 34  1  0  0  0
 34 35  1  0  0  0
 34 36  1  0  0  0
 34 47  1  0  0  0
 36 37  1  0  0  0
 36 38  1  0  0  0
 36 46  1  0  0  0
 38 39  1  0  0  0
 38 40  1  0  0  0
 38 45  1  0  0  0
 40 41  1  0  0  0
 40 42  1  0  0  0
 40 43  1  0  0  0
 43 44  1  0  0  0
 43 59  1  0  0  0
 43 60  1  0  0  0
 44 61  1  0  0  0
 45 62  1  0  0  0
 46 63  1  0  0  0
 46 69  1  0  0  0
 46 72  1  0  0  0
 47 64  1  0  0  0
 48 65  1  0  0  0
 48 67  1  0  0  0
M  CHG  3  12   1  26   1  46   1
M  END
> <s_m_entry_id>
17

> <s_m_entry_name>
biosynth_p1.0.sdf.10

> <s_m_Source_Path>
/Users/Sebastito/Downloads

> <s_m_Source_File>
biosynth_p1.0.sdf.gz

> <i_m_Source_File_Index>
10

> <chiral flag>
1

> <version>
0

> <i_m_ct_enhanced_stereo_status>
0

> <s_m_source_file>
ligprep_vs.maegz

> <i_m_source_file_index>
10

> <i_lp_mmshare_version>
37011

> <r_epik_Ionization_Penalty>
1.41464

> <r_epik_Ionization_Penalty_Charging>
0.0702336

> <r_epik_Ionization_Penalty_Neutral>
1.34441

> <r_epik_State_Penalty>
1.51383

> <r_epik_Charging_Adjusted_Penalty>
1.58407

> <i_epik_Tot_Q>
3

> <i_epik_Tot_abs_Q>
3

> <s_epik_Chemistry_Notes>
This compound contains an acetal/aminal-like group ( X-CH(R)-Y where X, Y are N, S, or O) that may be acid/base labile, releasing an aldehyde.

> <i_f3d_flags>
0

> <s_lp_Force_Field>
OPLS_2005

> <r_lp_Energy>
81.8141

> <b_lp_Chiralities_Consistent>
1

> <s_lp_Variant>
ZINC08214590-2

$$$$
ZINC08214590
                    3D
 Structure written by MMmdl.
 72 74  0  0  1  0            999 V2000
   -1.9267   -0.6495   -0.7575 C   0  0  0  0  0  0
   -0.3976   -0.7476   -0.7622 C   0  0  2  0  0  0
   -0.1278   -1.7955   -0.6312 H   0  0  0  0  0  0
    0.1954    0.1156    0.3744 C   0  0  1  0  0  0
   -0.0255    1.1582    0.1374 H   0  0  0  0  0  0
   -0.4270   -0.1968    1.7595 C   0  0  2  0  0  0
   -0.0240   -1.1234    2.1658 H   0  0  0  0  0  0
   -1.9737   -0.2836    1.7627 C   0  0  1  0  0  0
   -2.3880    0.7268    1.7363 H   0  0  0  0  0  0
   -2.5397   -1.1024    0.5773 C   0  0  1  0  0  0
   -2.2754   -2.1497    0.7289 H   0  0  0  0  0  0
   -4.0031   -0.9853    0.4912 N   0  0  0  0  0  0
   -2.2547   -0.9828    2.9745 O   0  0  0  0  0  0
   -3.3253   -0.5169    3.7421 C   0  0  2  0  0  0
   -3.4735    0.5549    3.6008 H   0  0  0  0  0  0
   -3.0183   -0.7962    5.2275 C   0  0  1  0  0  0
   -3.8691   -0.4359    5.8083 H   0  0  0  0  0  0
   -2.8482   -2.3129    5.4423 C   0  0  2  0  0  0
   -1.9604   -2.6778    4.9233 H   0  0  0  0  0  0
   -4.1142   -3.0404    4.9481 C   0  0  1  0  0  0
   -4.9430   -2.8336    5.6264 H   0  0  0  0  0  0
   -4.4847   -2.5876    3.5141 C   0  0  2  0  0  0
   -3.7192   -2.9522    2.8268 H   0  0  0  0  0  0
   -4.5243   -1.1605    3.4211 O   0  0  0  0  0  0
   -5.8346   -3.1328    3.0091 C   0  0  0  0  0  0
   -6.9708   -2.6816    3.8326 N   0  3  0  0  0  0
   -3.8677   -4.4334    4.9320 O   0  0  0  0  0  0
   -2.7120   -2.5567    6.8302 O   0  0  0  0  0  0
   -1.8847   -0.0660    5.6529 O   0  0  0  0  0  0
   -0.0742    0.8720    2.6177 O   0  0  0  0  0  0
    1.6225    0.0112    0.4494 O   0  0  0  0  0  0
    2.2094   -1.2563    0.5686 C   0  0  2  0  0  0
    1.5154   -1.9979    0.9620 H   0  0  0  0  0  0
    3.4287   -1.1528    1.5020 C   0  0  1  0  0  0
    3.8808   -2.1449    1.5538 H   0  0  0  0  0  0
    4.4446   -0.1588    0.9126 C   0  0  2  0  0  0
    4.0149    0.8441    0.8944 H   0  0  0  0  0  0
    4.8066   -0.6083   -0.5178 C   0  0  1  0  0  0
    5.4047   -1.5202   -0.4738 H   0  0  0  0  0  0
    3.5412   -0.8683   -1.3739 C   0  0  2  0  0  0
    3.0443    0.0814   -1.5816 H   0  0  0  0  0  0
    2.6563   -1.7393   -0.6630 O   0  0  0  0  0  0
    3.8754   -1.5686   -2.7033 C   0  0  0  0  0  0
    2.7786   -1.4779   -3.5867 O   0  0  0  0  0  0
    5.5744    0.4124   -1.1270 O   0  0  0  0  0  0
    5.6588   -0.1204    1.7513 N   0  3  0  0  0  0
    3.0360   -0.8163    2.8178 O   0  0  0  0  0  0
    0.1192   -0.3103   -2.0729 N   0  3  0  0  0  0
   -2.3313   -1.2587   -1.5676 H   0  0  0  0  0  0
   -2.2292    0.3784   -0.9680 H   0  0  0  0  0  0
   -4.3685   -1.5741   -0.2564 H   0  0  0  0  0  0
   -6.0047   -2.8098    1.9817 H   0  0  0  0  0  0
   -5.8238   -4.2229    2.9965 H   0  0  0  0  0  0
   -7.8302   -3.0530    3.4531 H   0  0  0  0  0  0
   -3.0793   -4.5963    4.4364 H   0  0  0  0  0  0
   -3.4606   -2.1948    7.2786 H   0  0  0  0  0  0
   -2.0567    0.8563    5.5410 H   0  0  0  0  0  0
   -0.4767    1.6652    2.2977 H   0  0  0  0  0  0
    4.7201   -1.0809   -3.1904 H   0  0  0  0  0  0
    4.1518   -2.6124   -2.5502 H   0  0  0  0  0  0
    2.1140   -2.0851   -3.2994 H   0  0  0  0  0  0
    5.0364    1.1837   -1.2257 H   0  0  0  0  0  0
    6.0709   -1.0417    1.7898 H   0  0  0  0  0  0
    2.5392   -0.0118    2.7931 H   0  0  0  0  0  0
   -0.1342    0.6540   -2.2358 H   0  0  0  0  0  0
   -7.0108   -1.6723    3.8282 H   0  0  0  0  0  0
   -0.2765   -0.8861   -2.8027 H   0  0  0  0  0  0
   -4.4382   -1.2932    1.3595 H   0  0  0  0  0  0
    5.4134    0.1755    2.6855 H   0  0  0  0  0  0
   -6.8539   -3.0108    4.7804 H   0  0  0  0  0  0
    1.1255   -0.3988   -2.0873 H   0  0  0  0  0  0
    6.3227    0.5285    1.3531 H   0  0  0  0  0  0
  1 10  1  0  0  0
  1  2  1  0  0  0
  1 49  1  0  0  0
  1 50  1  0  0  0
  2  3  1  0  0  0
  2  4  1  0  0  0
  2 48  1  0  0  0
  4  5  1  0  0  0
  4  6  1  0  0  0
  4 31  1  0  0  0
  6  7  1  0  0  0
  6  8  1  0  0  0
  6 30  1  0  0  0
  8  9  1  0  0  0
  8 10  1  0  0  0
  8 13  1  0  0  0
 10 11  1  0  0  0
 10 12  1  0  0  0
 12 51  1  0  0  0
 12 68  1  0  0  0
 13 14  1  0  0  0
 14 15  1  0  0  0
 14 24  1  0  0  0
 14 16  1  0  0  0
 16 17  1  0  0  0
 16 18  1  0  0  0
 16 29  1  0  0  0
 18 19  1  0  0  0
 18 20  1  0  0  0
 18 28  1  0  0  0
 20 21  1  0  0  0
 20 22  1  0  0  0
 20 27  1  0  0  0
 22 23  1  0  0  0
 22 24  1  0  0  0
 22 25  1  0  0  0
 25 26  1  0  0  0
 25 52  1  0  0  0
 25 53  1  0  0  0
 26 54  1  0  0  0
 26 66  1  0  0  0
 26 70  1  0  0  0
 27 55  1  0  0  0
 28 56  1  0  0  0
 29 57  1  0  0  0
 30 58  1  0  0  0
 31 32  1  0  0  0
 32 33  1  0  0  0
 32 42  1  0  0  0
 32 34  1  0  0  0
 34 35  1  0  0  0
 34 36  1  0  0  0
 34 47  1  0  0  0
 36 37  1  0  0  0
 36 38  1  0  0  0
 36 46  1  0  0  0
 38 39  1  0  0  0
 38 40  1  0  0  0
 38 45  1  0  0  0
 40 41  1  0  0  0
 40 42  1  0  0  0
 40 43  1  0  0  0
 43 44  1  0  0  0
 43 59  1  0  0  0
 43 60  1  0  0  0
 44 61  1  0  0  0
 45 62  1  0  0  0
 46 63  1  0  0  0
 46 69  1  0  0  0
 46 72  1  0  0  0
 47 64  1  0  0  0
 48 65  1  0  0  0
 48 67  1  0  0  0
 48 71  1  0  0  0
M  CHG  3  26   1  46   1  48   1
M  END
> <s_m_entry_id>
17

> <s_m_entry_name>
biosynth_p1.0.sdf.10

> <s_m_Source_Path>
/Users/Sebastito/Downloads

> <s_m_Source_File>
biosynth_p1.0.sdf.gz

> <i_m_Source_File_Index>
10

> <chiral flag>
1

> <version>
0

> <i_m_ct_enhanced_stereo_status>
0

> <s_m_source_file>
ligprep_vs.maegz

> <i_m_source_file_index>
10

> <i_lp_mmshare_version>
37011

> <r_epik_Ionization_Penalty>
1.44787

> <r_epik_Ionization_Penalty_Charging>
0.0722237

> <r_epik_Ionization_Penalty_Neutral>
1.37565

> <r_epik_State_Penalty>
1.5509

> <r_epik_Charging_Adjusted_Penalty>
1.62312

> <i_epik_Tot_Q>
3

> <i_epik_Tot_abs_Q>
3

> <s_epik_Chemistry_Notes>
This compound contains an acetal/aminal-like group ( X-CH(R)-Y where X, Y are N, S, or O) that may be acid/base labile, releasing an aldehyde.

> <i_f3d_flags>
0

> <s_lp_Force_Field>
OPLS_2005

> <r_lp_Energy>
80.6826

> <b_lp_Chiralities_Consistent>
1

> <s_lp_Variant>
ZINC08214590-3

$$$$
ZINC08214590
                    3D
 Structure written by MMmdl.
 72 74  0  0  1  0            999 V2000
   -1.7716   -0.6310   -1.0933 C   0  0  0  0  0  0
   -0.2452   -0.7465   -1.0008 C   0  0  2  0  0  0
    0.0119   -1.8050   -0.9543 H   0  0  0  0  0  0
    0.2693   -0.0086    0.2570 C   0  0  1  0  0  0
    0.0711    1.0532    0.0962 H   0  0  0  0  0  0
   -0.4506   -0.4263    1.5717 C   0  0  2  0  0  0
   -0.0752   -1.3779    1.9451 H   0  0  0  0  0  0
   -2.0009   -0.5100    1.4500 C   0  0  1  0  0  0
   -2.4304    0.4934    1.4625 H   0  0  0  0  0  0
   -2.4426   -1.2252    0.1518 C   0  0  1  0  0  0
   -2.1625   -2.2781    0.2180 H   0  0  0  0  0  0
   -3.9101   -1.1817    0.0002 N   0  3  0  0  0  0
   -2.5872   -1.3226    2.4720 O   0  0  0  0  0  0
   -2.4314   -0.9433    3.8095 C   0  0  2  0  0  0
   -1.3751   -0.9256    4.0755 H   0  0  0  0  0  0
   -3.1507   -1.9756    4.6976 C   0  0  1  0  0  0
   -3.0136   -1.6658    5.7352 H   0  0  0  0  0  0
   -4.6503   -1.9854    4.3542 C   0  0  2  0  0  0
   -4.8123   -2.3587    3.3417 H   0  0  0  0  0  0
   -5.2177   -0.5618    4.5217 C   0  0  1  0  0  0
   -5.2618   -0.3045    5.5817 H   0  0  0  0  0  0
   -4.3565    0.4886    3.7781 C   0  0  2  0  0  0
   -4.4979    0.3762    2.7020 H   0  0  0  0  0  0
   -2.9717    0.3158    4.0905 O   0  0  0  0  0  0
   -4.7276    1.9248    4.1927 C   0  0  0  0  0  0
   -4.0070    2.9325    3.3954 N   0  3  0  0  0  0
   -6.5247   -0.5283    3.9799 O   0  0  0  0  0  0
   -5.3075   -2.8289    5.2805 O   0  0  0  0  0  0
   -2.5632   -3.2547    4.5622 O   0  0  0  0  0  0
   -0.1458    0.6053    2.4932 O   0  0  0  0  0  0
    1.6863   -0.1234    0.4196 O   0  0  0  0  0  0
    2.2718   -1.3962    0.4451 C   0  0  2  0  0  0
    1.5636   -2.1630    0.7566 H   0  0  0  0  0  0
    3.4631   -1.3727    1.4188 C   0  0  1  0  0  0
    3.9185   -2.3644    1.4003 H   0  0  0  0  0  0
    4.4946   -0.3226    0.9620 C   0  0  2  0  0  0
    4.0492    0.6701    1.0433 H   0  0  0  0  0  0
    4.8763   -0.5987   -0.5091 C   0  0  1  0  0  0
    5.5359   -1.4666   -0.5640 H   0  0  0  0  0  0
    3.6412   -0.8303   -1.4155 C   0  0  2  0  0  0
    3.1268    0.1214   -1.5618 H   0  0  0  0  0  0
    2.7560   -1.7732   -0.8070 O   0  0  0  0  0  0
    4.0317   -1.4099   -2.7872 C   0  0  0  0  0  0
    2.9965   -1.1910   -3.7225 O   0  0  0  0  0  0
    5.5549    0.5435   -0.9936 O   0  0  0  0  0  0
    5.6966   -0.3974    1.8126 N   0  0  0  0  0  0
    3.0181   -1.1411    2.7412 O   0  0  0  0  0  0
    0.3714   -0.1932   -2.2217 N   0  3  0  0  0  0
   -2.1227   -1.1540   -1.9845 H   0  0  0  0  0  0
   -2.0636    0.4141   -1.2108 H   0  0  0  0  0  0
   -4.2212   -0.2241   -0.0768 H   0  0  0  0  0  0
   -5.7962    2.0971    4.0614 H   0  0  0  0  0  0
   -4.5074    2.0855    5.2487 H   0  0  0  0  0  0
   -4.2699    3.8567    3.7083 H   0  0  0  0  0  0
   -6.5027   -0.8846    3.1053 H   0  0  0  0  0  0
   -4.9245   -3.6918    5.2263 H   0  0  0  0  0  0
   -1.6894   -3.2262    4.9217 H   0  0  0  0  0  0
   -0.3714    1.4381    2.1080 H   0  0  0  0  0  0
    4.9220   -0.9132   -3.1738 H   0  0  0  0  0  0
    4.2628   -2.4734   -2.7188 H   0  0  0  0  0  0
    3.2817   -1.5175   -4.5631 H   0  0  0  0  0  0
    6.2911    0.7140   -0.4250 H   0  0  0  0  0  0
    5.4415   -0.2643    2.7905 H   0  0  0  0  0  0
    2.5090   -1.8854    3.0232 H   0  0  0  0  0  0
    0.1526    0.7890   -2.3084 H   0  0  0  0  0  0
   -4.2442    2.8307    2.4194 H   0  0  0  0  0  0
    0.0282   -0.6868   -3.0335 H   0  0  0  0  0  0
   -4.3426   -1.6145    0.8044 H   0  0  0  0  0  0
    6.1243   -1.3198    1.7453 H   0  0  0  0  0  0
   -3.0122    2.8101    3.5203 H   0  0  0  0  0  0
   -4.1788   -1.6887   -0.8317 H   0  0  0  0  0  0
    1.3752   -0.3065   -2.1721 H   0  0  0  0  0  0
  1 10  1  0  0  0
  1  2  1  0  0  0
  1 49  1  0  0  0
  1 50  1  0  0  0
  2  3  1  0  0  0
  2  4  1  0  0  0
  2 48  1  0  0  0
  4  5  1  0  0  0
  4  6  1  0  0  0
  4 31  1  0  0  0
  6  7  1  0  0  0
  6  8  1  0  0  0
  6 30  1  0  0  0
  8  9  1  0  0  0
  8 10  1  0  0  0
  8 13  1  0  0  0
 10 11  1  0  0  0
 10 12  1  0  0  0
 12 51  1  0  0  0
 12 68  1  0  0  0
 12 71  1  0  0  0
 13 14  1  0  0  0
 14 15  1  0  0  0
 14 24  1  0  0  0
 14 16  1  0  0  0
 16 17  1  0  0  0
 16 18  1  0  0  0
 16 29  1  0  0  0
 18 19  1  0  0  0
 18 20  1  0  0  0
 18 28  1  0  0  0
 20 21  1  0  0  0
 20 22  1  0  0  0
 20 27  1  0  0  0
 22 23  1  0  0  0
 22 24  1  0  0  0
 22 25  1  0  0  0
 25 26  1  0  0  0
 25 52  1  0  0  0
 25 53  1  0  0  0
 26 54  1  0  0  0
 26 66  1  0  0  0
 26 70  1  0  0  0
 27 55  1  0  0  0
 28 56  1  0  0  0
 29 57  1  0  0  0
 30 58  1  0  0  0
 31 32  1  0  0  0
 32 33  1  0  0  0
 32 42  1  0  0  0
 32 34  1  0  0  0
 34 35  1  0  0  0
 34 36  1  0  0  0
 34 47  1  0  0  0
 36 37  1  0  0  0
 36 38  1  0  0  0
 36 46  1  0  0  0
 38 39  1  0  0  0
 38 40  1  0  0  0
 38 45  1  0  0  0
 40 41  1  0  0  0
 40 42  1  0  0  0
 40 43  1  0  0  0
 43 44  1  0  0  0
 43 59  1  0  0  0
 43 60  1  0  0  0
 44 61  1  0  0  0
 45 62  1  0  0  0
 46 63  1  0  0  0
 46 69  1  0  0  0
 47 64  1  0  0  0
 48 65  1  0  0  0
 48 67  1  0  0  0
 48 72  1  0  0  0
M  CHG  3  12   1  26   1  48   1
M  END
> <s_m_entry_id>
17

> <s_m_entry_name>
biosynth_p1.0.sdf.10

> <s_m_Source_Path>
/Users/Sebastito/Downloads

> <s_m_Source_File>
biosynth_p1.0.sdf.gz

> <i_m_Source_File_Index>
10

> <chiral flag>
1

> <version>
0

> <i_m_ct_enhanced_stereo_status>
0

> <s_m_source_file>
ligprep_vs.maegz

> <i_m_source_file_index>
10

> <i_lp_mmshare_version>
37011

> <r_epik_Ionization_Penalty>
1.51554

> <r_epik_Ionization_Penalty_Charging>
0.124569

> <r_epik_Ionization_Penalty_Neutral>
1.39097

> <r_epik_State_Penalty>
1.56878

> <r_epik_Charging_Adjusted_Penalty>
1.69335

> <i_epik_Tot_Q>
3

> <i_epik_Tot_abs_Q>
3

> <s_epik_Chemistry_Notes>
This compound contains an acetal/aminal-like group ( X-CH(R)-Y where X, Y are N, S, or O) that may be acid/base labile, releasing an aldehyde.

> <i_f3d_flags>
0

> <s_lp_Force_Field>
OPLS_2005

> <r_lp_Energy>
99.0024

> <b_lp_Chiralities_Consistent>
1

> <s_lp_Variant>
ZINC08214590-4

$$$$
ZINC11422512
                    3D
 Structure written by MMmdl.
 37 38  0  0  1  0            999 V2000
   -1.0624    4.5610   -2.7658 C   0  0  0  0  0  0
   -1.5410    3.8177   -1.5292 C   0  0  0  0  0  0
   -1.7265    2.4727   -1.5155 C   0  0  0  0  0  0
   -2.1644    1.7608   -0.4022 N   0  0  0  0  0  0
   -2.4332    2.4652    0.7912 C   0  0  0  0  0  0
   -2.8267    1.9134    1.8186 O   0  0  0  0  0  0
   -2.2431    3.8450    0.7771 N   0  0  0  0  0  0
   -2.4238    4.3406    1.6374 H   0  0  0  0  0  0
   -1.8061    4.5935   -0.3162 C   0  0  0  0  0  0
   -1.6771    5.8121   -0.2073 O   0  0  0  0  0  0
   -2.2853    0.2429   -0.3492 C   0  0  1  0  0  0
   -3.2755    0.0542    0.0693 H   0  0  0  0  0  0
   -2.0823   -0.4802   -1.6778 C   0  0  0  0  0  0
   -0.5642   -0.6123   -1.7539 C   0  0  1  0  0  0
   -0.1284    0.2464   -2.2625 H   0  0  0  0  0  0
   -0.1189   -0.6025   -0.2789 C   0  0  2  0  0  0
    0.1749   -1.6101    0.0174 H   0  0  0  0  0  0
   -1.2786   -0.2479    0.4774 O   0  0  0  0  0  0
    1.0468    0.3716   -0.0113 C   0  0  0  0  0  0
    1.7922    0.0518    1.1576 O   0  0  0  0  0  0
    1.1347    0.4216    2.6200 P   0  0  0  0  0  0
    2.3144    0.4742    3.5701 O   0  0  0  0  0  0
    0.4500    1.7681    2.4793 O   0  5  0  0  0  0
    0.1751   -0.7026    2.9575 O   0  5  0  0  0  0
   -0.1469   -1.8037   -2.4106 O   0  0  0  0  0  0
   -0.5448   -1.9674   -4.0006 P   0  0  0  0  0  0
    0.5150   -2.8807   -4.5827 O   0  0  0  0  0  0
   -1.9258   -2.5930   -4.0209 O   0  5  0  0  0  0
   -0.5205   -0.5826   -4.6213 O   0  5  0  0  0  0
   -0.8737    3.8831   -3.5989 H   0  0  0  0  0  0
   -0.1344    5.0934   -2.5541 H   0  0  0  0  0  0
   -1.8101    5.2867   -3.0873 H   0  0  0  0  0  0
   -1.5224    1.9582   -2.4388 H   0  0  0  0  0  0
   -2.5309   -1.4692   -1.5770 H   0  0  0  0  0  0
   -2.5611    0.0166   -2.5210 H   0  0  0  0  0  0
    1.7591    0.2965   -0.8329 H   0  0  0  0  0  0
    0.7093    1.4081   -0.0093 H   0  0  0  0  0  0
  1  2  1  0  0  0
  1 30  1  0  0  0
  1 31  1  0  0  0
  1 32  1  0  0  0
  2  9  1  0  0  0
  2  3  2  0  0  0
  3  4  1  0  0  0
  3 33  1  0  0  0
  4  5  1  0  0  0
  4 11  1  0  0  0
  5  6  2  0  0  0
  5  7  1  0  0  0
  7  8  1  0  0  0
  7  9  1  0  0  0
  9 10  2  0  0  0
 11 12  1  0  0  0
 11 18  1  0  0  0
 11 13  1  0  0  0
 13 14  1  0  0  0
 13 34  1  0  0  0
 13 35  1  0  0  0
 14 15  1  0  0  0
 14 16  1  0  0  0
 14 25  1  0  0  0
 16 17  1  0  0  0
 16 18  1  0  0  0
 16 19  1  0  0  0
 19 20  1  0  0  0
 19 36  1  0  0  0
 19 37  1  0  0  0
 20 21  1  0  0  0
 21 22  2  0  0  0
 21 23  1  0  0  0
 21 24  1  0  0  0
 25 26  1  0  0  0
 26 27  2  0  0  0
 26 28  1  0  0  0
 26 29  1  0  0  0
M  CHG  4  23  -1  24  -1  28  -1  29  -1
M  END
> <s_m_entry_id>
18

> <s_m_entry_name>
biosynth_p1.0.sdf.11

> <s_m_Source_Path>
/Users/Sebastito/Downloads

> <s_m_Source_File>
biosynth_p1.0.sdf.gz

> <i_m_Source_File_Index>
11

> <chiral flag>
1

> <version>
0

> <i_m_ct_enhanced_stereo_status>
0

> <s_m_source_file>
ligprep_vs.maegz

> <i_m_source_file_index>
11

> <i_lp_mmshare_version>
37011

> <r_lp_tautomer_probability>
0.999537

> <r_epik_Ionization_Penalty>
0.212035

> <r_epik_Ionization_Penalty_Charging>
0.212035

> <r_epik_Ionization_Penalty_Neutral>
3.33369e-13

> <r_epik_State_Penalty>
0.190292

> <r_epik_Charging_Adjusted_Penalty>
0.402327

> <i_epik_Tot_Q>
-4

> <i_epik_Tot_abs_Q>
4

> <s_epik_Chemistry_Notes>
This compound contains an acetal/aminal-like group ( X-CH(R)-Y where X, Y are N, S, or O) that may be acid/base labile, releasing an aldehyde.

> <i_f3d_flags>
0

> <s_lp_Force_Field>
OPLS_2005

> <r_lp_Energy>
7.78749

> <b_lp_Chiralities_Consistent>
1

> <s_lp_Variant>
ZINC11422512-1

$$$$
ZINC11422512
                    3D
 Structure written by MMmdl.
 38 39  0  0  1  0            999 V2000
    2.3700    5.2639   -1.3144 C   0  0  0  0  0  0
    1.0179    4.7064   -1.7278 C   0  0  0  0  0  0
    0.5664    3.5005   -1.2970 C   0  0  0  0  0  0
   -0.6626    2.9643   -1.6575 N   0  0  0  0  0  0
   -1.4970    3.6820   -2.5382 C   0  0  0  0  0  0
   -2.5867    3.2589   -2.9218 O   0  0  0  0  0  0
   -1.0362    4.9221   -2.9781 N   0  0  0  0  0  0
   -1.6338    5.4401   -3.6056 H   0  0  0  0  0  0
    0.1844    5.5059   -2.6302 C   0  0  0  0  0  0
    0.4807    6.6103   -3.0836 O   0  0  0  0  0  0
   -1.1182    1.6078   -1.1662 C   0  0  1  0  0  0
   -2.1928    1.6710   -0.9843 H   0  0  0  0  0  0
   -0.7350    0.5094   -2.1549 C   0  0  0  0  0  0
   -0.5411   -0.6677   -1.2187 C   0  0  1  0  0  0
    0.1152   -1.4321   -1.6371 H   0  0  0  0  0  0
    0.0610   -0.0032    0.0244 C   0  0  2  0  0  0
   -0.2325   -0.5379    0.9285 H   0  0  0  0  0  0
   -0.4917    1.3148    0.0492 O   0  0  0  0  0  0
    1.5937    0.1350    0.0050 C   0  0  0  0  0  0
    2.2214   -1.1284    0.1072 O   0  0  0  0  0  0
    3.3086   -1.6807   -1.0801 P   0  0  0  0  0  0
    2.7761   -1.3501   -2.4204 O   0  0  0  0  0  0
    4.6641   -0.7027   -0.8031 O   0  0  0  0  0  0
    3.6883   -3.0733   -0.7564 O   0  5  0  0  0  0
   -1.7943   -1.2299   -0.8440 O   0  0  0  0  0  0
   -2.3412   -2.4992   -1.7342 P   0  0  0  0  0  0
   -3.7909   -2.6735   -1.3256 O   0  0  0  0  0  0
   -2.1918   -2.1167   -3.1940 O   0  5  0  0  0  0
   -1.4794   -3.6832   -1.3425 O   0  5  0  0  0  0
    2.8900    4.5957   -0.6272 H   0  0  0  0  0  0
    2.2502    6.2270   -0.8173 H   0  0  0  0  0  0
    3.0062    5.4052   -2.1887 H   0  0  0  0  0  0
    1.2077    2.9345   -0.6395 H   0  0  0  0  0  0
   -1.5054    0.3745   -2.9135 H   0  0  0  0  0  0
    0.2062    0.7639   -2.6443 H   0  0  0  0  0  0
    1.9261    0.6568   -0.8926 H   0  0  0  0  0  0
    1.9191    0.7376    0.8530 H   0  0  0  0  0  0
    5.4261   -1.2603   -0.8262 H   0  0  0  0  0  0
  1  2  1  0  0  0
  1 30  1  0  0  0
  1 31  1  0  0  0
  1 32  1  0  0  0
  2  9  1  0  0  0
  2  3  2  0  0  0
  3  4  1  0  0  0
  3 33  1  0  0  0
  4  5  1  0  0  0
  4 11  1  0  0  0
  5  6  2  0  0  0
  5  7  1  0  0  0
  7  8  1  0  0  0
  7  9  1  0  0  0
  9 10  2  0  0  0
 11 12  1  0  0  0
 11 18  1  0  0  0
 11 13  1  0  0  0
 13 14  1  0  0  0
 13 34  1  0  0  0
 13 35  1  0  0  0
 14 15  1  0  0  0
 14 16  1  0  0  0
 14 25  1  0  0  0
 16 17  1  0  0  0
 16 18  1  0  0  0
 16 19  1  0  0  0
 19 20  1  0  0  0
 19 36  1  0  0  0
 19 37  1  0  0  0
 20 21  1  0  0  0
 21 22  2  0  0  0
 21 23  1  0  0  0
 21 24  1  0  0  0
 23 38  1  0  0  0
 25 26  1  0  0  0
 26 27  2  0  0  0
 26 28  1  0  0  0
 26 29  1  0  0  0
M  CHG  3  24  -1  28  -1  29  -1
M  END
> <s_m_entry_id>
18

> <s_m_entry_name>
biosynth_p1.0.sdf.11

> <s_m_Source_Path>
/Users/Sebastito/Downloads

> <s_m_Source_File>
biosynth_p1.0.sdf.gz

> <i_m_Source_File_Index>
11

> <chiral flag>
1

> <version>
0

> <i_m_ct_enhanced_stereo_status>
0

> <s_m_source_file>
ligprep_vs.maegz

> <i_m_source_file_index>
11

> <i_lp_mmshare_version>
37011

> <r_lp_tautomer_probability>
0.999537

> <r_epik_Ionization_Penalty>
1.15677

> <r_epik_Ionization_Penalty_Charging>
0.0977236

> <r_epik_Ionization_Penalty_Neutral>
1.05905

> <r_epik_State_Penalty>
1.20457

> <r_epik_Charging_Adjusted_Penalty>
1.30229

> <i_epik_Tot_Q>
-3

> <i_epik_Tot_abs_Q>
3

> <s_epik_Chemistry_Notes>
This compound contains an acetal/aminal-like group ( X-CH(R)-Y where X, Y are N, S, or O) that may be acid/base labile, releasing an aldehyde.

> <i_f3d_flags>
0

> <s_lp_Force_Field>
OPLS_2005

> <r_lp_Energy>
17.7228

> <b_lp_Chiralities_Consistent>
1

> <s_lp_Variant>
ZINC11422512-2

$$$$
ZINC11422512
                    3D
 Structure written by MMmdl.
 38 39  0  0  1  0            999 V2000
   -5.9902   -0.6263   -1.6227 C   0  0  0  0  0  0
   -4.7497   -1.4871   -1.7935 C   0  0  0  0  0  0
   -3.5505   -1.1445   -1.2592 C   0  0  0  0  0  0
   -2.3983   -1.9103   -1.3781 N   0  0  0  0  0  0
   -2.4780   -3.1666   -2.0176 C   0  0  0  0  0  0
   -1.5292   -3.9455   -2.1040 O   0  0  0  0  0  0
   -3.7051   -3.5134   -2.5820 N   0  0  0  0  0  0
   -3.7595   -4.4025   -3.0559 H   0  0  0  0  0  0
   -4.8713   -2.7461   -2.5317 C   0  0  0  0  0  0
   -5.8931   -3.1574   -3.0799 O   0  0  0  0  0  0
   -1.1330   -1.5042   -0.6523 C   0  0  1  0  0  0
   -0.3447   -2.2160   -0.8984 H   0  0  0  0  0  0
   -0.6812   -0.0756   -0.9600 C   0  0  0  0  0  0
    0.0604    0.2826    0.3164 C   0  0  1  0  0  0
   -0.0697    1.3373    0.5634 H   0  0  0  0  0  0
   -0.5489   -0.6413    1.3857 C   0  0  2  0  0  0
    0.2484   -1.2064    1.8704 H   0  0  0  0  0  0
   -1.3844   -1.5767    0.7111 O   0  0  0  0  0  0
   -1.3480    0.0970    2.4704 C   0  0  0  0  0  0
   -2.3750    0.8838    1.8822 O   0  0  0  0  0  0
   -3.9161    0.4732    2.2721 P   0  0  0  0  0  0
   -4.7954    1.3402    1.3931 O   0  0  0  0  0  0
   -4.0695   -1.0054    1.9732 O   0  5  0  0  0  0
   -4.0642    0.7943    3.7465 O   0  5  0  0  0  0
    1.4442    0.0021    0.1952 O   0  0  0  0  0  0
    2.5355    1.1342   -0.4560 P   0  0  0  0  0  0
    3.8758    0.5097   -0.4990 O   0  0  0  0  0  0
    1.9536    1.7144   -1.6865 O   0  5  0  0  0  0
    2.5577    2.3393    0.7336 O   0  0  0  0  0  0
   -5.7682    0.3004   -1.0926 H   0  0  0  0  0  0
   -6.7474   -1.1631   -1.0503 H   0  0  0  0  0  0
   -6.4118   -0.3631   -2.5932 H   0  0  0  0  0  0
   -3.5038   -0.2317   -0.6856 H   0  0  0  0  0  0
   -0.0713   -0.0443   -1.8625 H   0  0  0  0  0  0
   -1.5285    0.5946   -1.0889 H   0  0  0  0  0  0
   -1.7357   -0.6166    3.1994 H   0  0  0  0  0  0
   -0.6876    0.7668    3.0210 H   0  0  0  0  0  0
    1.7066    2.7486    0.7434 H   0  0  0  0  0  0
  1  2  1  0  0  0
  1 30  1  0  0  0
  1 31  1  0  0  0
  1 32  1  0  0  0
  2  9  1  0  0  0
  2  3  2  0  0  0
  3  4  1  0  0  0
  3 33  1  0  0  0
  4  5  1  0  0  0
  4 11  1  0  0  0
  5  6  2  0  0  0
  5  7  1  0  0  0
  7  8  1  0  0  0
  7  9  1  0  0  0
  9 10  2  0  0  0
 11 12  1  0  0  0
 11 18  1  0  0  0
 11 13  1  0  0  0
 13 14  1  0  0  0
 13 34  1  0  0  0
 13 35  1  0  0  0
 14 15  1  0  0  0
 14 16  1  0  0  0
 14 25  1  0  0  0
 16 17  1  0  0  0
 16 18  1  0  0  0
 16 19  1  0  0  0
 19 20  1  0  0  0
 19 36  1  0  0  0
 19 37  1  0  0  0
 20 21  1  0  0  0
 21 22  2  0  0  0
 21 23  1  0  0  0
 21 24  1  0  0  0
 25 26  1  0  0  0
 26 27  2  0  0  0
 26 28  1  0  0  0
 26 29  1  0  0  0
 29 38  1  0  0  0
M  CHG  3  23  -1  24  -1  28  -1
M  END
> <s_m_entry_id>
18

> <s_m_entry_name>
biosynth_p1.0.sdf.11

> <s_m_Source_Path>
/Users/Sebastito/Downloads

> <s_m_Source_File>
biosynth_p1.0.sdf.gz

> <i_m_Source_File_Index>
11

> <chiral flag>
1

> <version>
0

> <i_m_ct_enhanced_stereo_status>
0

> <s_m_source_file>
ligprep_vs.maegz

> <i_m_source_file_index>
11

> <i_lp_mmshare_version>
37011

> <r_epik_Ionization_Penalty>
1.19476

> <r_epik_Ionization_Penalty_Charging>
0.10363

> <r_epik_Ionization_Penalty_Neutral>
1.09113

> <r_epik_State_Penalty>
1.24546

> <r_epik_Charging_Adjusted_Penalty>
1.34909

> <i_epik_Tot_Q>
-3

> <i_epik_Tot_abs_Q>
3

> <s_epik_Chemistry_Notes>
This compound contains an acetal/aminal-like group ( X-CH(R)-Y where X, Y are N, S, or O) that may be acid/base labile, releasing an aldehyde.

> <i_f3d_flags>
0

> <s_lp_Force_Field>
OPLS_2005

> <r_lp_Energy>
4.10654

> <b_lp_Chiralities_Consistent>
1

> <s_lp_Variant>
ZINC11422512-3

$$$$
ZINC11422512
                    3D
 Structure written by MMmdl.
 39 40  0  0  1  0            999 V2000
   -1.4322    5.8154   -1.0968 C   0  0  0  0  0  0
   -2.3070    4.5806   -0.9628 C   0  0  0  0  0  0
   -1.7896    3.3284   -0.8788 C   0  0  0  0  0  0
   -2.5602    2.1814   -0.7563 N   0  0  0  0  0  0
   -3.9647    2.2958   -0.6934 C   0  0  0  0  0  0
   -4.7180    1.3300   -0.5778 O   0  0  0  0  0  0
   -4.4968    3.5816   -0.7807 N   0  0  0  0  0  0
   -5.5019    3.6673   -0.7434 H   0  0  0  0  0  0
   -3.7606    4.7611   -0.9171 C   0  0  0  0  0  0
   -4.3478    5.8397   -0.9869 O   0  0  0  0  0  0
   -1.8986    0.8275   -0.6441 C   0  0  1  0  0  0
   -2.6397    0.0939   -0.3242 H   0  0  0  0  0  0
   -1.2081    0.4271   -1.9408 C   0  0  0  0  0  0
   -0.1425   -0.5106   -1.4077 C   0  0  1  0  0  0
    0.7314   -0.5420   -2.0602 H   0  0  0  0  0  0
    0.1849    0.0544   -0.0146 C   0  0  2  0  0  0
    0.2645   -0.7588    0.7060 H   0  0  0  0  0  0
   -0.9125    0.9008    0.3349 O   0  0  0  0  0  0
    1.4632    0.9104   -0.0093 C   0  0  0  0  0  0
    1.8519    1.2418    1.3110 O   0  0  0  0  0  0
    2.8449    0.2206    2.2463 P   0  0  0  0  0  0
    2.4347   -1.1862    2.0435 O   0  0  0  0  0  0
    4.3588    0.4302    1.5175 O   0  0  0  0  0  0
    2.9200    0.7760    3.6153 O   0  5  0  0  0  0
   -0.6590   -1.8226   -1.2679 O   0  0  0  0  0  0
   -0.6386   -2.9377   -2.5540 P   0  0  0  0  0  0
   -1.3999   -4.1359   -2.1386 O   0  0  0  0  0  0
   -0.9956   -2.2350   -3.8067 O   0  5  0  0  0  0
    0.9996   -3.3581   -2.6348 O   0  0  0  0  0  0
   -0.3727    5.5585   -1.1275 H   0  0  0  0  0  0
   -1.5896    6.4858   -0.2513 H   0  0  0  0  0  0
   -1.6725    6.3553   -2.0135 H   0  0  0  0  0  0
   -0.7155    3.2159   -0.9063 H   0  0  0  0  0  0
   -1.9108   -0.0244   -2.6409 H   0  0  0  0  0  0
   -0.7448    1.2967   -2.4076 H   0  0  0  0  0  0
    2.2823    0.3664   -0.4815 H   0  0  0  0  0  0
    1.3213    1.8246   -0.5851 H   0  0  0  0  0  0
    1.2665   -3.6415   -1.7742 H   0  0  0  0  0  0
    5.0170    0.1975    2.1532 H   0  0  0  0  0  0
  1  2  1  0  0  0
  1 30  1  0  0  0
  1 31  1  0  0  0
  1 32  1  0  0  0
  2  9  1  0  0  0
  2  3  2  0  0  0
  3  4  1  0  0  0
  3 33  1  0  0  0
  4  5  1  0  0  0
  4 11  1  0  0  0
  5  6  2  0  0  0
  5  7  1  0  0  0
  7  8  1  0  0  0
  7  9  1  0  0  0
  9 10  2  0  0  0
 11 12  1  0  0  0
 11 18  1  0  0  0
 11 13  1  0  0  0
 13 14  1  0  0  0
 13 34  1  0  0  0
 13 35  1  0  0  0
 14 15  1  0  0  0
 14 16  1  0  0  0
 14 25  1  0  0  0
 16 17  1  0  0  0
 16 18  1  0  0  0
 16 19  1  0  0  0
 19 20  1  0  0  0
 19 36  1  0  0  0
 19 37  1  0  0  0
 20 21  1  0  0  0
 21 22  2  0  0  0
 21 23  1  0  0  0
 21 24  1  0  0  0
 23 39  1  0  0  0
 25 26  1  0  0  0
 26 27  2  0  0  0
 26 28  1  0  0  0
 26 29  1  0  0  0
 29 38  1  0  0  0
M  CHG  2  24  -1  28  -1
M  END
> <s_m_entry_id>
18

> <s_m_entry_name>
biosynth_p1.0.sdf.11

> <s_m_Source_Path>
/Users/Sebastito/Downloads

> <s_m_Source_File>
biosynth_p1.0.sdf.gz

> <i_m_Source_File_Index>
11

> <chiral flag>
1

> <version>
0

> <i_m_ct_enhanced_stereo_status>
0

> <s_m_source_file>
ligprep_vs.maegz

> <i_m_source_file_index>
11

> <i_lp_mmshare_version>
37011

> <r_lp_tautomer_probability>
0.999537

> <r_epik_Ionization_Penalty>
2.21609

> <r_epik_Ionization_Penalty_Charging>
0.00145843

> <r_epik_Ionization_Penalty_Neutral>
2.21463

> <r_epik_State_Penalty>
2.30061

> <r_epik_Charging_Adjusted_Penalty>
2.30207

> <i_epik_Tot_Q>
-2

> <i_epik_Tot_abs_Q>
2

> <s_epik_Chemistry_Notes>
This compound contains an acetal/aminal-like group ( X-CH(R)-Y where X, Y are N, S, or O) that may be acid/base labile, releasing an aldehyde.

> <i_f3d_flags>
0

> <s_lp_Force_Field>
OPLS_2005

> <r_lp_Energy>
-1.52424

> <b_lp_Chiralities_Consistent>
1

> <s_lp_Variant>
ZINC11422512-4

$$$$
ZINC18140538
                    3D
 Structure written by MMmdl.
 27 26  0  0  1  0            999 V2000
   -2.0346   -0.8707    1.4072 C   0  0  0  0  0  0
   -0.5106   -0.6688    1.2897 C   0  0  1  0  0  0
   -0.0446   -1.6529    1.3485 H   0  0  0  0  0  0
   -0.0562    0.0392   -0.0155 C   0  0  2  0  0  0
   -0.4234   -0.5386   -0.8654 H   0  0  0  0  0  0
    1.4831    0.1909   -0.1599 C   0  0  2  0  0  0
    1.8621    0.8540    0.6183 H   0  0  0  0  0  0
    1.8797    0.7804   -1.5270 C   0  0  0  0  0  0
    1.6891    1.9730   -1.7657 O   0  0  0  0  0  0
    2.5043   -0.1442   -2.5792 C   0  0  0  0  0  0
    2.8519    0.6007   -3.7353 O   0  0  0  0  0  0
    4.4583    0.8531   -3.9410 P   0  0  0  0  0  0
    4.5700    1.7964   -5.1217 O   0  0  0  0  0  0
    4.9666    1.4655   -2.6496 O   0  5  0  0  0  0
    5.0566   -0.5118   -4.2206 O   0  5  0  0  0  0
    2.0961   -1.0739    0.0157 O   0  0  0  0  0  0
   -0.6844    1.3099   -0.0750 O   0  0  0  0  0  0
   -0.0590    0.0620    2.4139 O   0  0  0  0  0  0
   -2.5036   -1.7362    0.3943 O   0  0  0  0  0  0
   -2.2819   -1.3161    2.3714 H   0  0  0  0  0  0
   -2.5704    0.0771    1.3489 H   0  0  0  0  0  0
    3.3753   -0.6516   -2.1624 H   0  0  0  0  0  0
    1.7818   -0.9117   -2.8563 H   0  0  0  0  0  0
    3.0337   -0.9530    0.0012 H   0  0  0  0  0  0
   -0.4047    1.7416   -0.8688 H   0  0  0  0  0  0
   -0.4142    0.9363    2.3587 H   0  0  0  0  0  0
   -3.4370   -1.8410    0.4980 H   0  0  0  0  0  0
  1  2  1  0  0  0
  1 19  1  0  0  0
  1 20  1  0  0  0
  1 21  1  0  0  0
  2  3  1  0  0  0
  2  4  1  0  0  0
  2 18  1  0  0  0
  4  5  1  0  0  0
  4  6  1  0  0  0
  4 17  1  0  0  0
  6  7  1  0  0  0
  6  8  1  0  0  0
  6 16  1  0  0  0
  8  9  2  0  0  0
  8 10  1  0  0  0
 10 11  1  0  0  0
 10 22  1  0  0  0
 10 23  1  0  0  0
 11 12  1  0  0  0
 12 13  2  0  0  0
 12 14  1  0  0  0
 12 15  1  0  0  0
 16 24  1  0  0  0
 17 25  1  0  0  0
 18 26  1  0  0  0
 19 27  1  0  0  0
M  CHG  2  14  -1  15  -1
M  END
> <s_m_entry_id>
19

> <s_m_entry_name>
biosynth_p1.0.sdf.12

> <s_m_Source_Path>
/Users/Sebastito/Downloads

> <s_m_Source_File>
biosynth_p1.0.sdf.gz

> <i_m_Source_File_Index>
12

> <chiral flag>
1

> <version>
0

> <i_m_ct_enhanced_stereo_status>
0

> <s_m_source_file>
ligprep_vs.maegz

> <i_m_source_file_index>
12

> <i_lp_mmshare_version>
37011

> <r_lp_tautomer_probability>
0.9999

> <r_epik_Ionization_Penalty>
0.0684035

> <r_epik_Ionization_Penalty_Charging>
0.0684008

> <r_epik_Ionization_Penalty_Neutral>
2.71207e-06

> <r_epik_State_Penalty>
0.0598486

> <r_epik_Charging_Adjusted_Penalty>
0.128249

> <i_epik_Tot_Q>
-2

> <i_epik_Tot_abs_Q>
2

> <i_f3d_flags>
0

> <s_lp_Force_Field>
OPLS_2005

> <r_lp_Energy>
9.07418

> <b_lp_Chiralities_Consistent>
1

> <s_lp_Variant>
ZINC18140538-1

$$$$
ZINC18140538
                    3D
 Structure written by MMmdl.
 28 27  0  0  1  0            999 V2000
   -2.0379   -0.8252    1.4910 C   0  0  0  0  0  0
   -0.5175   -0.8104    1.2349 C   0  0  1  0  0  0
   -0.2108   -1.8143    0.9383 H   0  0  0  0  0  0
   -0.0964    0.1802    0.1174 C   0  0  2  0  0  0
   -0.6107   -0.1108   -0.8000 H   0  0  0  0  0  0
    1.4334    0.2256   -0.1535 C   0  0  2  0  0  0
    1.9410    0.5986    0.7366 H   0  0  0  0  0  0
    1.8364    1.1148   -1.3447 C   0  0  0  0  0  0
    1.0108    1.5119   -2.1666 O   0  0  0  0  0  0
    3.3107    1.4905   -1.5051 C   0  0  0  0  0  0
    4.0854    0.9030   -0.4798 O   0  0  0  0  0  0
    5.7611    1.1536   -0.3983 P   0  0  0  0  0  0
    6.0332    2.5919   -0.6133 O   0  0  0  0  0  0
    6.2660    0.4795    0.8175 O   0  5  0  0  0  0
    6.3279    0.3001   -1.7461 O   0  0  0  0  0  0
    1.9079   -1.0825   -0.4080 O   0  0  0  0  0  0
   -0.5617    1.4725    0.4700 O   0  0  0  0  0  0
    0.1591   -0.4891    2.4372 O   0  0  0  0  0  0
   -2.4150   -2.0056    2.1694 O   0  0  0  0  0  0
   -2.3582    0.0487    2.0597 H   0  0  0  0  0  0
   -2.5789   -0.8073    0.5445 H   0  0  0  0  0  0
    3.6708    1.1507   -2.4762 H   0  0  0  0  0  0
    3.4152    2.5751   -1.4695 H   0  0  0  0  0  0
    2.8523   -1.0496   -0.4485 H   0  0  0  0  0  0
   -0.1652    1.7159    1.2928 H   0  0  0  0  0  0
    1.0879   -0.5877    2.2919 H   0  0  0  0  0  0
   -3.3478   -1.9806    2.3182 H   0  0  0  0  0  0
    7.2666    0.4008   -1.7751 H   0  0  0  0  0  0
  1  2  1  0  0  0
  1 19  1  0  0  0
  1 20  1  0  0  0
  1 21  1  0  0  0
  2  3  1  0  0  0
  2  4  1  0  0  0
  2 18  1  0  0  0
  4  5  1  0  0  0
  4  6  1  0  0  0
  4 17  1  0  0  0
  6  7  1  0  0  0
  6  8  1  0  0  0
  6 16  1  0  0  0
  8  9  2  0  0  0
  8 10  1  0  0  0
 10 11  1  0  0  0
 10 22  1  0  0  0
 10 23  1  0  0  0
 11 12  1  0  0  0
 12 13  2  0  0  0
 12 14  1  0  0  0
 12 15  1  0  0  0
 15 28  1  0  0  0
 16 24  1  0  0  0
 17 25  1  0  0  0
 18 26  1  0  0  0
 19 27  1  0  0  0
M  CHG  1  14  -1
M  END
> <s_m_entry_id>
19

> <s_m_entry_name>
biosynth_p1.0.sdf.12

> <s_m_Source_Path>
/Users/Sebastito/Downloads

> <s_m_Source_File>
biosynth_p1.0.sdf.gz

> <i_m_Source_File_Index>
12

> <chiral flag>
1

> <version>
0

> <i_m_ct_enhanced_stereo_status>
0

> <s_m_source_file>
ligprep_vs.maegz

> <i_m_source_file_index>
12

> <i_lp_mmshare_version>
37011

> <r_lp_tautomer_probability>
0.9999

> <r_epik_Ionization_Penalty>
1.31311

> <r_epik_Ionization_Penalty_Charging>
8.8914e-05

> <r_epik_Ionization_Penalty_Neutral>
1.31302

> <r_epik_State_Penalty>
1.38795

> <r_epik_Charging_Adjusted_Penalty>
1.38804

> <i_epik_Tot_Q>
-1

> <i_epik_Tot_abs_Q>
1

> <i_f3d_flags>
0

> <s_lp_Force_Field>
OPLS_2005

> <r_lp_Energy>
10.0898

> <b_lp_Chiralities_Consistent>
1

> <s_lp_Variant>
ZINC18140538-2

$$$$
ZINC06019598
                    3D
 Structure written by MMmdl.
 32 32  0  0  1  0            999 V2000
   -0.5358   -3.5527   -5.7315 C   0  0  0  0  0  0
   -2.0632   -2.7908   -5.0477 S   0  0  0  0  0  0
   -2.5127   -1.7489   -5.9839 O   0  0  0  0  0  0
   -2.9824   -3.8742   -4.6668 O   0  0  0  0  0  0
   -1.5001   -1.9876   -3.5516 C   0  0  0  0  0  0
   -1.0072   -0.6693   -3.6101 C   0  0  0  0  0  0
   -0.5341   -0.0502   -2.4368 C   0  0  0  0  0  0
   -0.5434   -0.7477   -1.2077 C   0  0  0  0  0  0
   -1.0277   -2.0737   -1.1637 C   0  0  0  0  0  0
   -1.5011   -2.6972   -2.3346 C   0  0  0  0  0  0
   -0.0255   -0.0822    0.0620 C   0  0  1  0  0  0
   -0.2863   -0.7136    0.9128 H   0  0  0  0  0  0
    1.5111    0.1187    0.0420 C   0  0  1  0  0  0
    1.7634    0.8072   -0.7662 H   0  0  0  0  0  0
    2.0502    0.6895    1.3699 C   0  0  0  0  0  0
    3.4218    1.0048    1.2452 O   0  0  0  0  0  0
    2.1900   -1.1604   -0.2448 N   0  3  0  0  0  0
   -0.6582    1.1641    0.2742 O   0  0  0  0  0  0
   -0.7762   -4.0771   -6.6563 H   0  0  0  0  0  0
   -0.1261   -4.2597   -5.0104 H   0  0  0  0  0  0
    0.1995   -2.7751   -5.9372 H   0  0  0  0  0  0
   -0.9901   -0.1316   -4.5468 H   0  0  0  0  0  0
   -0.1616    0.9628   -2.4843 H   0  0  0  0  0  0
   -1.0358   -2.6207   -0.2323 H   0  0  0  0  0  0
   -1.8627   -3.7142   -2.2937 H   0  0  0  0  0  0
    1.5265    1.6056    1.6437 H   0  0  0  0  0  0
    1.9107   -0.0169    2.1889 H   0  0  0  0  0  0
    3.7159    1.3981    2.0535 H   0  0  0  0  0  0
    1.9770   -1.8272    0.4829 H   0  0  0  0  0  0
   -1.5871    1.0179    0.3736 H   0  0  0  0  0  0
    3.1875   -1.0044   -0.2773 H   0  0  0  0  0  0
    1.8739   -1.5169   -1.1353 H   0  0  0  0  0  0
  1  2  1  0  0  0
  1 19  1  0  0  0
  1 20  1  0  0  0
  1 21  1  0  0  0
  2  3  2  0  0  0
  2  4  2  0  0  0
  2  5  1  0  0  0
  5 10  2  0  0  0
  5  6  1  0  0  0
  6  7  2  0  0  0
  6 22  1  0  0  0
  7  8  1  0  0  0
  7 23  1  0  0  0
  8  9  2  0  0  0
  8 11  1  0  0  0
  9 10  1  0  0  0
  9 24  1  0  0  0
 10 25  1  0  0  0
 11 12  1  0  0  0
 11 13  1  0  0  0
 11 18  1  0  0  0
 13 14  1  0  0  0
 13 15  1  0  0  0
 13 17  1  0  0  0
 15 16  1  0  0  0
 15 26  1  0  0  0
 15 27  1  0  0  0
 16 28  1  0  0  0
 17 29  1  0  0  0
 17 31  1  0  0  0
 17 32  1  0  0  0
 18 30  1  0  0  0
M  CHG  1  17   1
M  END
> <s_m_entry_id>
20

> <s_m_entry_name>
biosynth_p1.0.sdf.13

> <s_m_Source_Path>
/Users/Sebastito/Downloads

> <s_m_Source_File>
biosynth_p1.0.sdf.gz

> <i_m_Source_File_Index>
13

> <chiral flag>
1

> <version>
0

> <i_m_ct_enhanced_stereo_status>
0

> <s_m_source_file>
ligprep_vs.maegz

> <i_m_source_file_index>
13

> <i_lp_mmshare_version>
37011

> <r_epik_Ionization_Penalty>
0.0753217

> <r_epik_Ionization_Penalty_Charging>
0.0753186

> <r_epik_Ionization_Penalty_Neutral>
3.11114e-06

> <r_epik_State_Penalty>
0.0663784

> <r_epik_Charging_Adjusted_Penalty>
0.141697

> <i_epik_Tot_Q>
1

> <i_epik_Tot_abs_Q>
1

> <i_f3d_flags>
0

> <s_lp_Force_Field>
OPLS_2005

> <r_lp_Energy>
10.0124

> <b_lp_Chiralities_Consistent>
1

> <s_lp_Variant>
ZINC06019598-1

$$$$
ZINC06019598
                    3D
 Structure written by MMmdl.
 31 31  0  0  1  0            999 V2000
   -3.6484   -2.1090   -5.3404 C   0  0  0  0  0  0
   -2.0432   -2.9337   -4.9902 S   0  0  0  0  0  0
   -2.3205   -4.3269   -4.6074 O   0  0  0  0  0  0
   -1.1318   -2.6542   -6.1106 O   0  0  0  0  0  0
   -1.4322   -2.0695   -3.5484 C   0  0  0  0  0  0
   -1.7376   -2.5526   -2.2608 C   0  0  0  0  0  0
   -1.2815   -1.8519   -1.1274 C   0  0  0  0  0  0
   -0.5321   -0.6641   -1.2770 C   0  0  0  0  0  0
   -0.2448   -0.1808   -2.5735 C   0  0  0  0  0  0
   -0.6965   -0.8791   -3.7099 C   0  0  0  0  0  0
   -0.0388    0.0897   -0.0471 C   0  0  1  0  0  0
   -0.4580   -0.3923    0.8372 H   0  0  0  0  0  0
    1.5113    0.0805    0.0773 C   0  0  1  0  0  0
    1.9246    0.6546   -0.7528 H   0  0  0  0  0  0
    2.0263    0.7106    1.3914 C   0  0  0  0  0  0
    1.9075    2.1176    1.3946 O   0  0  0  0  0  0
    2.0337   -1.2942   -0.0289 N   0  0  0  0  0  0
   -0.5299    1.4149   -0.0505 O   0  0  0  0  0  0
   -4.1116   -2.5732   -6.2106 H   0  0  0  0  0  0
   -3.4778   -1.0514   -5.5408 H   0  0  0  0  0  0
   -4.3074   -2.2139   -4.4789 H   0  0  0  0  0  0
   -2.3164   -3.4558   -2.1361 H   0  0  0  0  0  0
   -1.5108   -2.2312   -0.1424 H   0  0  0  0  0  0
    0.3240    0.7289   -2.6992 H   0  0  0  0  0  0
   -0.4775   -0.4994   -4.6969 H   0  0  0  0  0  0
    1.4983    0.3001    2.2527 H   0  0  0  0  0  0
    3.0837    0.4811    1.5296 H   0  0  0  0  0  0
    2.2439    2.4469    2.2140 H   0  0  0  0  0  0
    3.0492   -1.2941    0.0553 H   0  0  0  0  0  0
   -1.4735    1.3843   -0.0157 H   0  0  0  0  0  0
    1.6742   -1.8702    0.7306 H   0  0  0  0  0  0
  1  2  1  0  0  0
  1 19  1  0  0  0
  1 20  1  0  0  0
  1 21  1  0  0  0
  2  3  2  0  0  0
  2  4  2  0  0  0
  2  5  1  0  0  0
  5 10  2  0  0  0
  5  6  1  0  0  0
  6  7  2  0  0  0
  6 22  1  0  0  0
  7  8  1  0  0  0
  7 23  1  0  0  0
  8  9  2  0  0  0
  8 11  1  0  0  0
  9 10  1  0  0  0
  9 24  1  0  0  0
 10 25  1  0  0  0
 11 12  1  0  0  0
 11 13  1  0  0  0
 11 18  1  0  0  0
 13 14  1  0  0  0
 13 15  1  0  0  0
 13 17  1  0  0  0
 15 16  1  0  0  0
 15 26  1  0  0  0
 15 27  1  0  0  0
 16 28  1  0  0  0
 17 29  1  0  0  0
 17 31  1  0  0  0
 18 30  1  0  0  0
M  END
> <s_m_entry_id>
20

> <s_m_entry_name>
biosynth_p1.0.sdf.13

> <s_m_Source_Path>
/Users/Sebastito/Downloads

> <s_m_Source_File>
biosynth_p1.0.sdf.gz

> <i_m_Source_File_Index>
13

> <chiral flag>
1

> <version>
0

> <i_m_ct_enhanced_stereo_status>
0

> <s_m_source_file>
ligprep_vs.maegz

> <i_m_source_file_index>
13

> <i_lp_mmshare_version>
37011

> <r_epik_Ionization_Penalty>
1.25932

> <r_epik_Ionization_Penalty_Charging>
0

> <r_epik_Ionization_Penalty_Neutral>
1.25932

> <r_epik_State_Penalty>
1.3298

> <r_epik_Charging_Adjusted_Penalty>
1.3298

> <i_epik_Tot_Q>
0

> <i_epik_Tot_abs_Q>
0

> <i_f3d_flags>
0

> <s_lp_Force_Field>
OPLS_2005

> <r_lp_Energy>
12.9878

> <b_lp_Chiralities_Consistent>
1

> <s_lp_Variant>
ZINC06019598-2

$$$$
ZINC01748627
                    3D
 Structure written by MMmdl.
 16 16  0  0  1  0            999 V2000
   -0.7455    1.1905    0.0000 C   0  0  0  0  0  0
    0.0149   -0.0019   -0.0000 C   0  0  0  0  0  0
   -0.7302   -1.2101    0.0000 C   0  0  0  0  0  0
   -2.0818   -1.2045   -0.0000 N   0  0  0  0  0  0
   -2.6862   -0.0149   -0.0000 C   0  0  0  0  0  0
   -4.0596   -0.0219   -0.0000 N   0  0  0  0  0  0
   -0.1270   -2.4693    0.0000 N   0  0  0  0  0  0
    1.4983    0.0462   -0.0000 C   0  0  0  0  0  0
    2.1566    1.0852   -0.0000 O   0  0  0  0  0  0
   -0.2758    2.1635    0.0000 H   0  0  0  0  0  0
   -4.5743    0.8466   -0.0000 H   0  0  0  0  0  0
   -4.5668   -0.8950   -0.0001 H   0  0  0  0  0  0
    0.8767   -2.5782    0.0000 H   0  0  0  0  0  0
   -0.6795   -3.3147    0.0001 H   0  0  0  0  0  0
    1.9867   -0.9281   -0.0000 H   0  0  0  0  0  0
   -2.0962    1.1807    0.0000 N   0  0  0  0  0  0
  1  2  2  0  0  0
  1 10  1  0  0  0
  1 16  1  0  0  0
  2  3  1  0  0  0
  2  8  1  0  0  0
  3  4  2  0  0  0
  3  7  1  0  0  0
  4  5  1  0  0  0
  5  6  1  0  0  0
  5 16  2  0  0  0
  6 11  1  0  0  0
  6 12  1  0  0  0
  7 13  1  0  0  0
  7 14  1  0  0  0
  8  9  2  0  0  0
  8 15  1  0  0  0
M  END
> <s_m_entry_id>
21

> <s_m_entry_name>
biosynth_p1.0.sdf.14

> <s_m_Source_Path>
/Users/Sebastito/Downloads

> <s_m_Source_File>
biosynth_p1.0.sdf.gz

> <i_m_Source_File_Index>
14

> <chiral flag>
0

> <version>
0

> <i_m_ct_enhanced_stereo_status>
0

> <s_m_source_file>
ligprep_vs.maegz

> <i_m_source_file_index>
14

> <i_lp_mmshare_version>
37011

> <i_f3d_flags>
0

> <r_epik_Ionization_Penalty>
0.0218056

> <r_epik_Ionization_Penalty_Charging>
0

> <r_epik_Ionization_Penalty_Neutral>
0.0218056

> <r_epik_State_Penalty>
0.0175074

> <r_epik_Charging_Adjusted_Penalty>
0.0175074

> <i_epik_Tot_Q>
0

> <i_epik_Tot_abs_Q>
0

> <s_lp_Force_Field>
OPLS_2005

> <r_lp_Energy>
-0.214131

> <b_lp_Chiralities_Consistent>
1

> <s_lp_Variant>
ZINC01748627-1

$$$$
ZINC01748627
                    3D
 Structure written by MMmdl.
 17 17  0  0  1  0            999 V2000
   -0.7271    1.1906   -0.0000 C   0  0  0  0  0  0
    0.0232   -0.0048   -0.0000 C   0  0  0  0  0  0
   -0.7196   -1.2090    0.0000 C   0  0  0  0  0  0
   -2.0686   -1.1969    0.0000 N   0  0  0  0  0  0
   -2.7136   -0.0253    0.0000 C   0  0  0  0  0  0
   -4.0882   -0.0365    0.0000 N   0  0  0  0  0  0
   -0.1202   -2.4703    0.0000 N   0  0  0  0  0  0
    1.5068    0.0415   -0.0000 C   0  0  0  0  0  0
    2.1635    1.0814   -0.0000 O   0  0  0  0  0  0
   -0.2902    2.1792   -0.0000 H   0  0  0  0  0  0
   -4.5923   -0.9117    0.0000 H   0  0  0  0  0  0
   -4.6098    0.8280    0.0001 H   0  0  0  0  0  0
    0.8836   -2.5819    0.0000 H   0  0  0  0  0  0
   -0.6731   -3.3157    0.0001 H   0  0  0  0  0  0
    1.9952   -0.9326   -0.0000 H   0  0  0  0  0  0
   -2.0824    1.1567    0.0000 N   0  3  0  0  0  0
   -2.6067    2.0320    0.0000 H   0  0  0  0  0  0
  1  2  2  0  0  0
  1 10  1  0  0  0
  1 16  1  0  0  0
  2  3  1  0  0  0
  2  8  1  0  0  0
  3  4  2  0  0  0
  3  7  1  0  0  0
  4  5  1  0  0  0
  5  6  1  0  0  0
  5 16  2  0  0  0
  6 11  1  0  0  0
  6 12  1  0  0  0
  7 13  1  0  0  0
  7 14  1  0  0  0
  8  9  2  0  0  0
  8 15  1  0  0  0
 16 17  1  0  0  0
M  CHG  1  16   1
M  END
> <s_m_entry_id>
21

> <s_m_entry_name>
biosynth_p1.0.sdf.14

> <s_m_Source_Path>
/Users/Sebastito/Downloads

> <s_m_Source_File>
biosynth_p1.0.sdf.gz

> <i_m_Source_File_Index>
14

> <chiral flag>
0

> <version>
0

> <i_m_ct_enhanced_stereo_status>
0

> <s_m_source_file>
ligprep_vs.maegz

> <i_m_source_file_index>
14

> <i_lp_mmshare_version>
37011

> <i_f3d_flags>
0

> <r_epik_Ionization_Penalty>
1.98969

> <r_epik_Ionization_Penalty_Charging>
1.96891

> <r_epik_Ionization_Penalty_Neutral>
0.0207775

> <r_epik_State_Penalty>
2.09529

> <r_epik_Charging_Adjusted_Penalty>
4.06421

> <i_epik_Tot_Q>
1

> <i_epik_Tot_abs_Q>
1

> <s_lp_Force_Field>
OPLS_2005

> <r_lp_Energy>
6.37929

> <b_lp_Chiralities_Consistent>
1

> <s_lp_Variant>
ZINC01748627-2

$$$$
ZINC01748627
                    3D
 Structure written by MMmdl.
 16 16  0  0  1  0            999 V2000
   -0.7455    1.1905    0.0000 C   0  0  0  0  0  0
    0.0149   -0.0019   -0.0000 C   0  0  0  0  0  0
   -0.7302   -1.2101    0.0000 C   0  0  0  0  0  0
   -2.0818   -1.2045   -0.0000 N   0  0  0  0  0  0
   -2.6862   -0.0149   -0.0000 C   0  0  0  0  0  0
   -4.0596   -0.0219   -0.0000 N   0  0  0  0  0  0
   -0.1270   -2.4693    0.0000 N   0  0  0  0  0  0
    1.4983    0.0462   -0.0000 C   0  0  0  0  0  0
    2.1566    1.0852   -0.0000 O   0  0  0  0  0  0
   -0.2758    2.1635    0.0000 H   0  0  0  0  0  0
   -4.5743    0.8466   -0.0000 H   0  0  0  0  0  0
   -4.5668   -0.8950   -0.0001 H   0  0  0  0  0  0
    0.8767   -2.5782    0.0000 H   0  0  0  0  0  0
   -0.6795   -3.3147    0.0001 H   0  0  0  0  0  0
    1.9867   -0.9281   -0.0000 H   0  0  0  0  0  0
   -2.0962    1.1807    0.0000 N   0  0  0  0  0  0
  1  2  2  0  0  0
  1 10  1  0  0  0
  1 16  1  0  0  0
  2  3  1  0  0  0
  2  8  1  0  0  0
  3  4  2  0  0  0
  3  7  1  0  0  0
  4  5  1  0  0  0
  5  6  1  0  0  0
  5 16  2  0  0  0
  6 11  1  0  0  0
  6 12  1  0  0  0
  7 13  1  0  0  0
  7 14  1  0  0  0
  8  9  2  0  0  0
  8 15  1  0  0  0
M  END
> <s_m_entry_id>
22

> <s_m_entry_name>
biosynth_p1.0.sdf.15

> <s_m_Source_Path>
/Users/Sebastito/Downloads

> <s_m_Source_File>
biosynth_p1.0.sdf.gz

> <i_m_Source_File_Index>
15

> <chiral flag>
0

> <version>
0

> <i_m_ct_enhanced_stereo_status>
0

> <s_m_source_file>
ligprep_vs.maegz

> <i_m_source_file_index>
15

> <i_lp_mmshare_version>
37011

> <i_f3d_flags>
0

> <r_epik_Ionization_Penalty>
0.0218056

> <r_epik_Ionization_Penalty_Charging>
0

> <r_epik_Ionization_Penalty_Neutral>
0.0218056

> <r_epik_State_Penalty>
0.0175074

> <r_epik_Charging_Adjusted_Penalty>
0.0175074

> <i_epik_Tot_Q>
0

> <i_epik_Tot_abs_Q>
0

> <s_lp_Force_Field>
OPLS_2005

> <r_lp_Energy>
-0.214131

> <b_lp_Chiralities_Consistent>
1

> <s_lp_Variant>
ZINC01748627-1

$$$$
ZINC01748627
                    3D
 Structure written by MMmdl.
 17 17  0  0  1  0            999 V2000
   -0.7271    1.1906   -0.0000 C   0  0  0  0  0  0
    0.0232   -0.0048   -0.0000 C   0  0  0  0  0  0
   -0.7196   -1.2090    0.0000 C   0  0  0  0  0  0
   -2.0686   -1.1969    0.0000 N   0  0  0  0  0  0
   -2.7136   -0.0253    0.0000 C   0  0  0  0  0  0
   -4.0882   -0.0365    0.0000 N   0  0  0  0  0  0
   -0.1202   -2.4703    0.0000 N   0  0  0  0  0  0
    1.5068    0.0415   -0.0000 C   0  0  0  0  0  0
    2.1635    1.0814   -0.0000 O   0  0  0  0  0  0
   -0.2902    2.1792   -0.0000 H   0  0  0  0  0  0
   -4.5923   -0.9117    0.0000 H   0  0  0  0  0  0
   -4.6098    0.8280    0.0001 H   0  0  0  0  0  0
    0.8836   -2.5819    0.0000 H   0  0  0  0  0  0
   -0.6731   -3.3157    0.0001 H   0  0  0  0  0  0
    1.9952   -0.9326   -0.0000 H   0  0  0  0  0  0
   -2.0824    1.1567    0.0000 N   0  3  0  0  0  0
   -2.6067    2.0320    0.0000 H   0  0  0  0  0  0
  1  2  2  0  0  0
  1 10  1  0  0  0
  1 16  1  0  0  0
  2  3  1  0  0  0
  2  8  1  0  0  0
  3  4  2  0  0  0
  3  7  1  0  0  0
  4  5  1  0  0  0
  5  6  1  0  0  0
  5 16  2  0  0  0
  6 11  1  0  0  0
  6 12  1  0  0  0
  7 13  1  0  0  0
  7 14  1  0  0  0
  8  9  2  0  0  0
  8 15  1  0  0  0
 16 17  1  0  0  0
M  CHG  1  16   1
M  END
> <s_m_entry_id>
22

> <s_m_entry_name>
biosynth_p1.0.sdf.15

> <s_m_Source_Path>
/Users/Sebastito/Downloads

> <s_m_Source_File>
biosynth_p1.0.sdf.gz

> <i_m_Source_File_Index>
15

> <chiral flag>
0

> <version>
0

> <i_m_ct_enhanced_stereo_status>
0

> <s_m_source_file>
ligprep_vs.maegz

> <i_m_source_file_index>
15

> <i_lp_mmshare_version>
37011

> <i_f3d_flags>
0

> <r_epik_Ionization_Penalty>
1.98969

> <r_epik_Ionization_Penalty_Charging>
1.96891

> <r_epik_Ionization_Penalty_Neutral>
0.0207775

> <r_epik_State_Penalty>
2.09529

> <r_epik_Charging_Adjusted_Penalty>
4.06421

> <i_epik_Tot_Q>
1

> <i_epik_Tot_abs_Q>
1

> <s_lp_Force_Field>
OPLS_2005

> <r_lp_Energy>
6.37929

> <b_lp_Chiralities_Consistent>
1

> <s_lp_Variant>
ZINC01748627-2

$$$$
ZINC02031042
                    3D
 Structure written by MMmdl.
 52 53  0  0  1  0            999 V2000
   -5.2764    1.7939   -0.6300 C   0  0  0  0  0  0
   -3.9855    1.0253   -0.4377 C   0  0  0  0  0  0
   -4.0526   -0.3042   -0.5493 N   0  0  0  0  0  0
   -2.9025   -0.9885   -0.3729 C   0  0  0  0  0  0
   -1.6822   -0.3389   -0.0858 C   0  0  0  0  0  0
   -1.7383    1.0725    0.0123 C   0  0  0  0  0  0
   -2.8944    1.7470   -0.1653 N   0  0  0  0  0  0
   -0.6106    1.8386    0.3026 N   0  0  0  0  0  0
   -0.3963   -1.1353    0.0982 C   0  0  0  0  0  0
    0.4687   -1.1326   -1.0889 N   0  0  0  0  0  0
    0.0839   -1.8146   -2.1902 C   0  0  0  0  0  0
    0.7256   -1.8903   -3.2381 O   0  0  0  0  0  0
    1.6839   -0.4224   -1.0605 C   0  0  0  0  0  0
    2.7175   -0.7458   -0.2370 C   0  0  0  0  0  0
    2.7176   -1.9204    0.7459 C   0  0  0  0  0  0
    2.9889   -1.5320    2.2127 C   0  0  0  0  0  0
    2.0133   -0.6397    2.7060 O   0  0  0  0  0  0
    4.2396    0.1818   -0.2083 S   0  0  0  0  0  0
    4.9501    0.4063   -2.1158 S   0  0  0  0  0  0
    6.0685   -0.9935   -2.4265 C   0  0  0  0  0  0
    5.3720   -2.3004   -2.8471 C   0  0  2  0  0  0
    6.1413   -3.0485   -3.0477 H   0  0  0  0  0  0
    4.4464   -2.2180   -4.0588 C   0  0  0  0  0  0
    3.6733   -3.5146   -3.9298 C   0  0  0  0  0  0
    3.6122   -3.7411   -2.4155 C   0  0  0  0  0  0
    4.5358   -2.8254   -1.8315 O   0  0  0  0  0  0
    1.6787    0.7708   -2.0131 C   0  0  0  0  0  0
   -5.7097    2.0477    0.3377 H   0  0  0  0  0  0
   -6.0066    1.2073   -1.1888 H   0  0  0  0  0  0
   -5.0971    2.7189   -1.1793 H   0  0  0  0  0  0
   -2.9567   -2.0630   -0.4681 H   0  0  0  0  0  0
    0.2987    1.4160    0.4196 H   0  0  0  0  0  0
   -0.6593    2.8461    0.3489 H   0  0  0  0  0  0
    0.1257   -0.7216    0.9579 H   0  0  0  0  0  0
   -0.6414   -2.1634    0.3709 H   0  0  0  0  0  0
   -0.8882   -2.3081   -2.0348 H   0  0  0  0  0  0
    1.7982   -2.4991    0.6854 H   0  0  0  0  0  0
    3.4998   -2.6112    0.4362 H   0  0  0  0  0  0
    2.9798   -2.4268    2.8353 H   0  0  0  0  0  0
    3.9751   -1.0836    2.3320 H   0  0  0  0  0  0
    2.0645    0.1637    2.2110 H   0  0  0  0  0  0
    6.7548   -0.6913   -3.2177 H   0  0  0  0  0  0
    6.6768   -1.1598   -1.5373 H   0  0  0  0  0  0
    3.7593   -1.3753   -3.9785 H   0  0  0  0  0  0
    4.9844   -2.1338   -5.0032 H   0  0  0  0  0  0
    2.6881   -3.4679   -4.3938 H   0  0  0  0  0  0
    4.2286   -4.3255   -4.4030 H   0  0  0  0  0  0
    2.6167   -3.5475   -2.0169 H   0  0  0  0  0  0
    3.8821   -4.7665   -2.1606 H   0  0  0  0  0  0
    2.2379    0.5421   -2.9196 H   0  0  0  0  0  0
    2.1156    1.6507   -1.5410 H   0  0  0  0  0  0
    0.6660    1.0417   -2.3150 H   0  0  0  0  0  0
  1  2  1  0  0  0
  1 28  1  0  0  0
  1 29  1  0  0  0
  1 30  1  0  0  0
  2  7  2  0  0  0
  2  3  1  0  0  0
  3  4  2  0  0  0
  4  5  1  0  0  0
  4 31  1  0  0  0
  5  6  2  0  0  0
  5  9  1  0  0  0
  6  7  1  0  0  0
  6  8  1  0  0  0
  8 32  1  0  0  0
  8 33  1  0  0  0
  9 10  1  0  0  0
  9 34  1  0  0  0
  9 35  1  0  0  0
 10 11  1  0  0  0
 10 13  1  0  0  0
 11 12  2  0  0  0
 11 36  1  0  0  0
 13 14  2  0  0  0
 13 27  1  0  0  0
 14 15  1  0  0  0
 14 18  1  0  0  0
 15 16  1  0  0  0
 15 37  1  0  0  0
 15 38  1  0  0  0
 16 17  1  0  0  0
 16 39  1  0  0  0
 16 40  1  0  0  0
 17 41  1  0  0  0
 18 19  1  0  0  0
 19 20  1  0  0  0
 20 21  1  0  0  0
 20 42  1  0  0  0
 20 43  1  0  0  0
 21 22  1  0  0  0
 21 26  1  0  0  0
 21 23  1  0  0  0
 23 24  1  0  0  0
 23 44  1  0  0  0
 23 45  1  0  0  0
 24 25  1  0  0  0
 24 46  1  0  0  0
 24 47  1  0  0  0
 25 26  1  0  0  0
 25 48  1  0  0  0
 25 49  1  0  0  0
 27 50  1  0  0  0
 27 51  1  0  0  0
 27 52  1  0  0  0
M  END
> <s_m_entry_id>
23

> <s_m_entry_name>
biosynth_p1.0.sdf.16

> <s_m_Source_Path>
/Users/Sebastito/Downloads

> <s_m_Source_File>
biosynth_p1.0.sdf.gz

> <i_m_Source_File_Index>
16

> <chiral flag>
1

> <version>
0

> <i_m_ct_enhanced_stereo_status>
0

> <s_m_source_file>
ligprep_vs.maegz

> <i_m_source_file_index>
16

> <i_lp_mmshare_version>
37011

> <r_lp_tautomer_probability>
1

> <r_epik_Ionization_Penalty>
0.0847121

> <r_epik_Ionization_Penalty_Charging>
0

> <r_epik_Ionization_Penalty_Neutral>
0.0847121

> <r_epik_State_Penalty>
0.0749361

> <r_epik_Charging_Adjusted_Penalty>
0.0749361

> <i_epik_Tot_Q>
0

> <i_epik_Tot_abs_Q>
0

> <i_f3d_flags>
0

> <s_lp_Force_Field>
OPLS_2005

> <r_lp_Energy>
24.7279

> <b_lp_Chiralities_Consistent>
1

> <s_lp_Variant>
ZINC02031042-1

$$$$
ZINC02031042
                    3D
 Structure written by MMmdl.
 53 54  0  0  1  0            999 V2000
   -5.2141    1.9964   -0.4261 C   0  0  0  0  0  0
   -3.9521    1.1778   -0.2522 C   0  0  0  0  0  0
   -4.0202   -0.1541   -0.4001 N   0  3  0  0  0  0
   -2.9009   -0.9034   -0.2499 C   0  0  0  0  0  0
   -1.6665   -0.2958    0.0572 C   0  0  0  0  0  0
   -1.6768    1.1092    0.1957 C   0  0  0  0  0  0
   -2.8123    1.8182    0.0391 N   0  0  0  0  0  0
   -0.5266    1.8336    0.5042 N   0  0  0  0  0  0
   -0.4049   -1.1347    0.2177 C   0  0  0  0  0  0
    0.4272   -1.1659   -0.9922 N   0  0  0  0  0  0
    0.0369   -1.9189   -2.0441 C   0  0  0  0  0  0
    0.6432   -2.0169   -3.1105 O   0  0  0  0  0  0
    1.6058   -0.3982   -1.0428 C   0  0  0  0  0  0
    2.6780   -0.6253   -0.2385 C   0  0  0  0  0  0
    2.7743   -1.7452    0.8007 C   0  0  0  0  0  0
    3.0876   -1.2672    2.2322 C   0  0  0  0  0  0
    2.1050   -0.3733    2.7093 O   0  0  0  0  0  0
    4.1414    0.3842   -0.3204 S   0  0  0  0  0  0
    4.8554    0.3665   -2.2378 S   0  0  0  0  0  0
    5.9838   -1.0557   -2.3338 C   0  0  0  0  0  0
    5.3154   -2.3695   -2.7765 C   0  0  2  0  0  0
    6.0635   -3.1642   -2.7511 H   0  0  0  0  0  0
    4.6571   -2.3564   -4.1559 C   0  0  0  0  0  0
    3.6663   -3.5082   -4.0751 C   0  0  0  0  0  0
    3.5533   -3.8073   -2.5757 C   0  0  0  0  0  0
    4.2500   -2.7528   -1.9274 O   0  0  0  0  0  0
    1.5209    0.7397   -2.0577 C   0  0  0  0  0  0
   -5.4593    2.0906   -1.4842 H   0  0  0  0  0  0
   -5.0955    2.9987   -0.0124 H   0  0  0  0  0  0
   -6.0536    1.5191    0.0804 H   0  0  0  0  0  0
   -3.0301   -1.9673   -0.3845 H   0  0  0  0  0  0
    0.3682    1.3807    0.6226 H   0  0  0  0  0  0
   -0.5464    2.8392    0.5955 H   0  0  0  0  0  0
    0.1523   -0.7382    1.0629 H   0  0  0  0  0  0
   -0.6783   -2.1516    0.5053 H   0  0  0  0  0  0
   -0.9050   -2.4474   -1.8286 H   0  0  0  0  0  0
    1.8798   -2.3648    0.8104 H   0  0  0  0  0  0
    3.5737   -2.4162    0.4891 H   0  0  0  0  0  0
    3.1271   -2.1249    2.9039 H   0  0  0  0  0  0
    4.0640   -0.7863    2.2874 H   0  0  0  0  0  0
    2.1506    0.4200    2.1977 H   0  0  0  0  0  0
    6.7783   -0.8052   -3.0369 H   0  0  0  0  0  0
    6.4603   -1.1861   -1.3621 H   0  0  0  0  0  0
    4.1129   -1.4265   -4.3222 H   0  0  0  0  0  0
    5.3775   -2.4724   -4.9661 H   0  0  0  0  0  0
    2.7061   -3.2271   -4.5079 H   0  0  0  0  0  0
    4.0314   -4.3844   -4.6118 H   0  0  0  0  0  0
    2.5206   -3.8633   -2.2321 H   0  0  0  0  0  0
    4.0388   -4.7548   -2.3381 H   0  0  0  0  0  0
    2.0896    0.4969   -2.9547 H   0  0  0  0  0  0
    1.9081    1.6681   -1.6375 H   0  0  0  0  0  0
    0.4920    0.9341   -2.3638 H   0  0  0  0  0  0
   -4.9057   -0.6089   -0.6244 H   0  0  0  0  0  0
  1  2  1  0  0  0
  1 28  1  0  0  0
  1 29  1  0  0  0
  1 30  1  0  0  0
  2  7  2  0  0  0
  2  3  1  0  0  0
  3  4  2  0  0  0
  3 53  1  0  0  0
  4  5  1  0  0  0
  4 31  1  0  0  0
  5  6  2  0  0  0
  5  9  1  0  0  0
  6  7  1  0  0  0
  6  8  1  0  0  0
  8 32  1  0  0  0
  8 33  1  0  0  0
  9 10  1  0  0  0
  9 34  1  0  0  0
  9 35  1  0  0  0
 10 11  1  0  0  0
 10 13  1  0  0  0
 11 12  2  0  0  0
 11 36  1  0  0  0
 13 14  2  0  0  0
 13 27  1  0  0  0
 14 15  1  0  0  0
 14 18  1  0  0  0
 15 16  1  0  0  0
 15 37  1  0  0  0
 15 38  1  0  0  0
 16 17  1  0  0  0
 16 39  1  0  0  0
 16 40  1  0  0  0
 17 41  1  0  0  0
 18 19  1  0  0  0
 19 20  1  0  0  0
 20 21  1  0  0  0
 20 42  1  0  0  0
 20 43  1  0  0  0
 21 22  1  0  0  0
 21 26  1  0  0  0
 21 23  1  0  0  0
 23 24  1  0  0  0
 23 44  1  0  0  0
 23 45  1  0  0  0
 24 25  1  0  0  0
 24 46  1  0  0  0
 24 47  1  0  0  0
 25 26  1  0  0  0
 25 48  1  0  0  0
 25 49  1  0  0  0
 27 50  1  0  0  0
 27 51  1  0  0  0
 27 52  1  0  0  0
M  CHG  1   3   1
M  END
> <s_m_entry_id>
23

> <s_m_entry_name>
biosynth_p1.0.sdf.16

> <s_m_Source_Path>
/Users/Sebastito/Downloads

> <s_m_Source_File>
biosynth_p1.0.sdf.gz

> <i_m_Source_File_Index>
16

> <chiral flag>
1

> <version>
0

> <i_m_ct_enhanced_stereo_status>
0

> <s_m_source_file>
ligprep_vs.maegz

> <i_m_source_file_index>
16

> <i_lp_mmshare_version>
37011

> <r_lp_tautomer_probability>
0.999336

> <r_epik_Ionization_Penalty>
1.1969

> <r_epik_Ionization_Penalty_Charging>
1.19689

> <r_epik_Ionization_Penalty_Neutral>
9.96379e-06

> <r_epik_State_Penalty>
1.26215

> <r_epik_Charging_Adjusted_Penalty>
2.45904

> <i_epik_Tot_Q>
1

> <i_epik_Tot_abs_Q>
1

> <i_f3d_flags>
0

> <s_lp_Force_Field>
OPLS_2005

> <r_lp_Energy>
32.0709

> <b_lp_Chiralities_Consistent>
1

> <s_lp_Variant>
ZINC02031042-2

$$$$
ZINC13831130
                    3D
 Structure written by MMmdl.
 52 54  0  0  1  0            999 V2000
   -4.1052    5.9770    0.4627 C   0  0  0  0  0  0
   -2.9383    5.0605    0.3277 C   0  0  0  0  0  0
   -1.6562    5.3363    0.5715 N   0  0  0  0  0  0
   -0.9680    4.1753    0.3006 N   0  0  0  0  0  0
   -1.8841    3.2799   -0.0877 C   0  0  0  0  0  0
   -3.1474    3.7855   -0.0893 O   0  0  0  0  0  0
   -1.7039    1.8640   -0.5094 C   0  0  0  0  0  0
   -2.6658    1.1784   -0.8556 O   0  0  0  0  0  0
   -0.4262    1.4446   -0.4764 N   0  0  0  0  0  0
    0.1470    0.1464   -0.8657 C   0  0  0  0  0  0
   -0.3998   -0.8962    0.1517 C   0  0  0  0  0  0
   -0.3033   -0.3365   -2.2728 C   0  0  0  0  0  0
    1.7068    0.2273   -0.7943 C   0  0  0  0  0  0
    2.3383   -0.6714   -0.1141 N   0  0  0  0  0  0
    3.7266   -0.6873   -0.0191 C   0  0  0  0  0  0
    4.5040    0.2915   -0.6671 C   0  0  0  0  0  0
    3.7853    1.3400   -1.4279 C   0  0  0  0  0  0
    4.3790    2.2715   -1.9866 O   0  0  0  0  0  0
    2.4186    1.2516   -1.4903 N   0  0  0  0  0  0
    1.7384    2.3298   -2.2452 C   0  0  0  0  0  0
    5.7506    0.4359   -0.7200 O   0  5  0  0  0  0
    4.2606   -1.8021    0.7806 C   0  0  0  0  0  0
    5.5638   -1.7093    1.0923 N   0  0  0  0  0  0
    6.3289   -2.6888    1.8566 C   0  0  0  0  0  0
    6.8074   -3.8873    1.0467 C   0  0  0  0  0  0
    7.0785   -3.7811   -0.3370 C   0  0  0  0  0  0
    7.5316   -4.9019   -1.0601 C   0  0  0  0  0  0
    7.7219   -6.1339   -0.4056 C   0  0  0  0  0  0
    7.4601   -6.2442    0.9733 C   0  0  0  0  0  0
    7.0068   -5.1239    1.6967 C   0  0  0  0  0  0
    8.1594   -7.2108   -1.1005 F   0  0  0  0  0  0
    3.5824   -2.7579    1.1637 O   0  0  0  0  0  0
   -3.7817    6.9542    0.8224 H   0  0  0  0  0  0
   -4.8245    5.5638    1.1697 H   0  0  0  0  0  0
   -4.5941    6.1033   -0.5034 H   0  0  0  0  0  0
    0.2489    2.1263   -0.1600 H   0  0  0  0  0  0
   -0.0170   -1.8986   -0.0463 H   0  0  0  0  0  0
   -1.4863   -0.9748    0.1150 H   0  0  0  0  0  0
   -0.1323   -0.6374    1.1775 H   0  0  0  0  0  0
    0.1443   -1.3050   -2.4997 H   0  0  0  0  0  0
   -0.0285    0.3214   -3.0923 H   0  0  0  0  0  0
   -1.3815   -0.4808   -2.3309 H   0  0  0  0  0  0
    2.2415    2.5290   -3.1930 H   0  0  0  0  0  0
    1.7598    3.2519   -1.6627 H   0  0  0  0  0  0
    0.7076    2.1678   -2.5298 H   0  0  0  0  0  0
    7.2046   -2.1850    2.2657 H   0  0  0  0  0  0
    5.7429   -3.0287    2.7123 H   0  0  0  0  0  0
    6.9437   -2.8417   -0.8532 H   0  0  0  0  0  0
    7.7351   -4.8145   -2.1172 H   0  0  0  0  0  0
    7.6078   -7.1881    1.4767 H   0  0  0  0  0  0
    6.8108   -5.2174    2.7548 H   0  0  0  0  0  0
    6.0658   -0.9025    0.7472 H   0  0  0  0  0  0
  1  2  1  0  0  0
  1 33  1  0  0  0
  1 34  1  0  0  0
  1 35  1  0  0  0
  2  6  1  0  0  0
  2  3  2  0  0  0
  3  4  1  0  0  0
  4  5  2  0  0  0
  5  6  1  0  0  0
  5  7  1  0  0  0
  7  8  2  0  0  0
  7  9  1  0  0  0
  9 10  1  0  0  0
  9 36  1  0  0  0
 10 11  1  0  0  0
 10 12  1  0  0  0
 10 13  1  0  0  0
 11 37  1  0  0  0
 11 38  1  0  0  0
 11 39  1  0  0  0
 12 40  1  0  0  0
 12 41  1  0  0  0
 12 42  1  0  0  0
 13 19  1  0  0  0
 13 14  2  0  0  0
 14 15  1  0  0  0
 15 16  2  0  0  0
 15 22  1  0  0  0
 16 17  1  0  0  0
 16 21  1  0  0  0
 17 18  2  0  0  0
 17 19  1  0  0  0
 19 20  1  0  0  0
 20 43  1  0  0  0
 20 44  1  0  0  0
 20 45  1  0  0  0
 22 23  1  0  0  0
 22 32  2  0  0  0
 23 24  1  0  0  0
 23 52  1  0  0  0
 24 25  1  0  0  0
 24 46  1  0  0  0
 24 47  1  0  0  0
 25 30  2  0  0  0
 25 26  1  0  0  0
 26 27  2  0  0  0
 26 48  1  0  0  0
 27 28  1  0  0  0
 27 49  1  0  0  0
 28 29  2  0  0  0
 28 31  1  0  0  0
 29 30  1  0  0  0
 29 50  1  0  0  0
 30 51  1  0  0  0
M  CHG  1  21  -1
M  END
> <s_m_entry_id>
24

> <s_m_entry_name>
biosynth_p1.0.sdf.17

> <s_m_Source_Path>
/Users/Sebastito/Downloads

> <s_m_Source_File>
biosynth_p1.0.sdf.gz

> <i_m_Source_File_Index>
17

> <chiral flag>
0

> <version>
0

> <i_m_ct_enhanced_stereo_status>
0

> <s_m_source_file>
ligprep_vs.maegz

> <i_m_source_file_index>
17

> <i_lp_mmshare_version>
37011

> <r_lp_tautomer_probability>
1

> <r_epik_Ionization_Penalty>
0.922091

> <r_epik_Ionization_Penalty_Charging>
0.921968

> <r_epik_Ionization_Penalty_Neutral>
0.000122928

> <r_epik_State_Penalty>
0.328305

> <r_epik_Charging_Adjusted_Penalty>
1.25027

> <i_epik_Tot_Q>
-1

> <i_epik_Tot_abs_Q>
1

> <i_f3d_flags>
0

> <s_lp_Force_Field>
OPLS_2005

> <r_lp_Energy>
46.3996

> <b_lp_Chiralities_Consistent>
1

> <s_lp_Variant>
ZINC13831130-1

$$$$
ZINC13831130
                    3D
 Structure written by MMmdl.
 53 55  0  0  1  0            999 V2000
   -3.4919    6.1541    0.2641 C   0  0  0  0  0  0
   -2.3908    5.1577    0.1386 C   0  0  0  0  0  0
   -1.0808    5.3815    0.2530 N   0  0  0  0  0  0
   -0.4759    4.1612    0.0548 N   0  0  0  0  0  0
   -1.4647    3.2863   -0.1658 C   0  0  0  0  0  0
   -2.6967    3.8617   -0.1272 O   0  0  0  0  0  0
   -1.3893    1.8266   -0.4454 C   0  0  0  0  0  0
   -2.4058    1.1692   -0.6673 O   0  0  0  0  0  0
   -0.1376    1.3339   -0.4302 N   0  0  0  0  0  0
    0.3365   -0.0319   -0.7033 C   0  0  0  0  0  0
   -0.2241   -0.9311    0.4364 C   0  0  0  0  0  0
   -0.2060   -0.6189   -2.0355 C   0  0  0  0  0  0
    1.8991   -0.0486   -0.7023 C   0  0  0  0  0  0
    2.5086   -0.9252    0.0317 N   0  0  0  0  0  0
    3.9046   -1.0214    0.0667 C   0  0  0  0  0  0
    4.6567   -0.1649   -0.6816 C   0  0  0  0  0  0
    4.0116    0.8538   -1.5181 C   0  0  0  0  0  0
    4.6734    1.6615   -2.1756 O   0  0  0  0  0  0
    2.6420    0.8616   -1.5207 N   0  0  0  0  0  0
    2.0036    1.9165   -2.3385 C   0  0  0  0  0  0
    5.9998   -0.1833   -0.7022 O   0  0  0  0  0  0
    4.5200   -2.0555    0.9202 C   0  0  0  0  0  0
    3.6172   -2.7700    1.6184 N   0  0  0  0  0  0
    3.9277   -3.8461    2.5544 C   0  0  0  0  0  0
    4.4347   -3.3828    3.9149 C   0  0  0  0  0  0
    4.0887   -2.1178    4.4441 C   0  0  0  0  0  0
    4.5691   -1.7205    5.7072 C   0  0  0  0  0  0
    5.3908   -2.5861    6.4540 C   0  0  0  0  0  0
    5.7308   -3.8505    5.9369 C   0  0  0  0  0  0
    5.2530   -4.2471    4.6728 C   0  0  0  0  0  0
    5.8514   -2.2040    7.6686 F   0  0  0  0  0  0
    5.7259   -2.2844    1.0261 O   0  0  0  0  0  0
   -3.3086    6.8106    1.1149 H   0  0  0  0  0  0
   -4.4470    5.6495    0.4121 H   0  0  0  0  0  0
   -3.5509    6.7591   -0.6406 H   0  0  0  0  0  0
    0.5904    2.0029   -0.2231 H   0  0  0  0  0  0
    0.0865   -1.9712    0.3258 H   0  0  0  0  0  0
   -1.3140   -0.9429    0.4523 H   0  0  0  0  0  0
    0.1059   -0.5902    1.4191 H   0  0  0  0  0  0
    0.1713   -1.6314   -2.1850 H   0  0  0  0  0  0
    0.0679   -0.0593   -2.9256 H   0  0  0  0  0  0
   -1.2925   -0.6983   -2.0349 H   0  0  0  0  0  0
    2.5020    2.0319   -3.3026 H   0  0  0  0  0  0
    2.0726    2.8730   -1.8184 H   0  0  0  0  0  0
    0.9630    1.7752   -2.5998 H   0  0  0  0  0  0
    6.2811    0.5065   -1.2842 H   0  0  0  0  0  0
    3.0198   -4.4285    2.7115 H   0  0  0  0  0  0
    4.6530   -4.5245    2.1015 H   0  0  0  0  0  0
    3.4542   -1.4425    3.8892 H   0  0  0  0  0  0
    4.3055   -0.7512    6.1041 H   0  0  0  0  0  0
    6.3581   -4.5171    6.5098 H   0  0  0  0  0  0
    5.5190   -5.2195    4.2850 H   0  0  0  0  0  0
    2.6417   -2.5408    1.4931 H   0  0  0  0  0  0
  1  2  1  0  0  0
  1 33  1  0  0  0
  1 34  1  0  0  0
  1 35  1  0  0  0
  2  6  1  0  0  0
  2  3  2  0  0  0
  3  4  1  0  0  0
  4  5  2  0  0  0
  5  6  1  0  0  0
  5  7  1  0  0  0
  7  8  2  0  0  0
  7  9  1  0  0  0
  9 10  1  0  0  0
  9 36  1  0  0  0
 10 11  1  0  0  0
 10 12  1  0  0  0
 10 13  1  0  0  0
 11 37  1  0  0  0
 11 38  1  0  0  0
 11 39  1  0  0  0
 12 40  1  0  0  0
 12 41  1  0  0  0
 12 42  1  0  0  0
 13 19  1  0  0  0
 13 14  2  0  0  0
 14 15  1  0  0  0
 15 16  2  0  0  0
 15 22  1  0  0  0
 16 17  1  0  0  0
 16 21  1  0  0  0
 17 18  2  0  0  0
 17 19  1  0  0  0
 19 20  1  0  0  0
 20 43  1  0  0  0
 20 44  1  0  0  0
 20 45  1  0  0  0
 21 46  1  0  0  0
 22 23  1  0  0  0
 22 32  2  0  0  0
 23 24  1  0  0  0
 23 53  1  0  0  0
 24 25  1  0  0  0
 24 47  1  0  0  0
 24 48  1  0  0  0
 25 30  2  0  0  0
 25 26  1  0  0  0
 26 27  2  0  0  0
 26 49  1  0  0  0
 27 28  1  0  0  0
 27 50  1  0  0  0
 28 29  2  0  0  0
 28 31  1  0  0  0
 29 30  1  0  0  0
 29 51  1  0  0  0
 30 52  1  0  0  0
M  END
> <s_m_entry_id>
24

> <s_m_entry_name>
biosynth_p1.0.sdf.17

> <s_m_Source_Path>
/Users/Sebastito/Downloads

> <s_m_Source_File>
biosynth_p1.0.sdf.gz

> <i_m_Source_File_Index>
17

> <chiral flag>
0

> <version>
0

> <i_m_ct_enhanced_stereo_status>
0

> <s_m_source_file>
ligprep_vs.maegz

> <i_m_source_file_index>
17

> <i_lp_mmshare_version>
37011

> <r_lp_tautomer_probability>
0.811048

> <r_epik_Ionization_Penalty>
0.140483

> <r_epik_Ionization_Penalty_Charging>
2.06133e-09

> <r_epik_Ionization_Penalty_Neutral>
0.140483

> <r_epik_State_Penalty>
0.506467

> <r_epik_Charging_Adjusted_Penalty>
0.506467

> <i_epik_Tot_Q>
0

> <i_epik_Tot_abs_Q>
0

> <i_f3d_flags>
0

> <s_lp_Force_Field>
OPLS_2005

> <r_lp_Energy>
37.5141

> <b_lp_Chiralities_Consistent>
1

> <s_lp_Variant>
ZINC13831130-2

$$$$
ZINC04025478
                    3D
 Structure written by MMmdl.
 29 30  0  0  1  0            999 V2000
   -2.0248   -1.2256    0.0123 C   0  0  0  0  0  0
   -0.6108   -1.1285   -0.0187 O   0  0  0  0  0  0
   -0.0246    0.0802    0.0182 C   0  0  0  0  0  0
   -0.6332    1.1510    0.0732 O   0  0  0  0  0  0
    1.4418   -0.0446   -0.0143 C   0  0  0  0  0  0
    2.2420    1.0392    0.0296 C   0  0  0  0  0  0
    3.7159    1.0371    0.0040 C   0  0  0  0  0  0
    4.4757   -0.1507   -0.1066 C   0  0  0  0  0  0
    5.8833   -0.1018   -0.1253 C   0  0  0  0  0  0
    6.5565    1.1334   -0.0273 C   0  0  0  0  0  0
    5.8025    2.3229    0.0804 C   0  0  0  0  0  0
    4.3955    2.2705    0.0976 C   0  0  0  0  0  0
    7.9713    1.1563   -0.0584 N   0  0  0  0  0  0
    8.8888    0.3586   -0.7259 C   0  0  0  0  0  0
   10.1284    0.8386   -0.3641 C   0  0  0  0  0  0
    9.9854    1.9091    0.5214 N   0  0  0  0  0  0
    8.6724    2.0432    0.6629 C   0  0  0  0  0  0
   -2.3251   -2.2730   -0.0156 H   0  0  0  0  0  0
   -2.4686   -0.7213   -0.8470 H   0  0  0  0  0  0
   -2.4255   -0.7811    0.9242 H   0  0  0  0  0  0
    1.8516   -1.0415   -0.0735 H   0  0  0  0  0  0
    1.7862    2.0180    0.0886 H   0  0  0  0  0  0
    3.9965   -1.1146   -0.1802 H   0  0  0  0  0  0
    6.4437   -1.0213   -0.2106 H   0  0  0  0  0  0
    6.2924    3.2833    0.1418 H   0  0  0  0  0  0
    3.8373    3.1917    0.1818 H   0  0  0  0  0  0
    8.5990   -0.4501   -1.3807 H   0  0  0  0  0  0
   11.1067    0.4960   -0.6673 H   0  0  0  0  0  0
    8.2323    2.7902    1.3076 H   0  0  0  0  0  0
  1  2  1  0  0  0
  1 18  1  0  0  0
  1 19  1  0  0  0
  1 20  1  0  0  0
  2  3  1  0  0  0
  3  4  2  0  0  0
  3  5  1  0  0  0
  5  6  2  0  0  0
  5 21  1  0  0  0
  6  7  1  0  0  0
  6 22  1  0  0  0
  7 12  2  0  0  0
  7  8  1  0  0  0
  8  9  2  0  0  0
  8 23  1  0  0  0
  9 10  1  0  0  0
  9 24  1  0  0  0
 10 11  2  0  0  0
 10 13  1  0  0  0
 11 12  1  0  0  0
 11 25  1  0  0  0
 12 26  1  0  0  0
 13 17  1  0  0  0
 13 14  1  0  0  0
 14 15  2  0  0  0
 14 27  1  0  0  0
 15 16  1  0  0  0
 15 28  1  0  0  0
 16 17  2  0  0  0
 17 29  1  0  0  0
M  END
> <s_m_entry_id>
25

> <s_m_entry_name>
biosynth_p1.0.sdf.18

> <s_m_Source_Path>
/Users/Sebastito/Downloads

> <s_m_Source_File>
biosynth_p1.0.sdf.gz

> <i_m_Source_File_Index>
18

> <chiral flag>
0

> <version>
0

> <i_m_ct_enhanced_stereo_status>
0

> <s_m_source_file>
ligprep_vs.maegz

> <i_m_source_file_index>
18

> <i_lp_mmshare_version>
37011

> <i_f3d_flags>
0

> <r_lp_tautomer_probability>
1

> <r_epik_Ionization_Penalty>
0.0218596

> <r_epik_Ionization_Penalty_Charging>
0.0218596

> <r_epik_Ionization_Penalty_Neutral>
9.4722e-15

> <r_epik_State_Penalty>
0.0176044

> <r_epik_Charging_Adjusted_Penalty>
0.0394639

> <i_epik_Tot_Q>
0

> <i_epik_Tot_abs_Q>
0

> <s_epik_Chemistry_Notes>
This compound has an ester and may undergo hydrolysis at high or low pH.

> <s_lp_Force_Field>
OPLS_2005

> <r_lp_Energy>
13.486

> <b_lp_Chiralities_Consistent>
1

> <s_lp_Variant>
ZINC04025478-1

$$$$
ZINC04025478
                    3D
 Structure written by MMmdl.
 30 31  0  0  1  0            999 V2000
   -2.0169   -1.2254   -0.0069 C   0  0  0  0  0  0
   -0.6029   -1.1277   -0.0265 O   0  0  0  0  0  0
   -0.0176    0.0816    0.0015 C   0  0  0  0  0  0
   -0.6270    1.1528    0.0383 O   0  0  0  0  0  0
    1.4491   -0.0433   -0.0166 C   0  0  0  0  0  0
    2.2498    1.0404    0.0223 C   0  0  0  0  0  0
    3.7238    1.0361    0.0070 C   0  0  0  0  0  0
    4.4821   -0.1515   -0.1134 C   0  0  0  0  0  0
    5.8898   -0.1064   -0.1178 C   0  0  0  0  0  0
    6.5651    1.1275    0.0023 C   0  0  0  0  0  0
    5.8121    2.3151    0.1256 C   0  0  0  0  0  0
    4.4050    2.2662    0.1275 C   0  0  0  0  0  0
    7.9803    1.1729    0.0006 N   0  0  0  0  0  0
    8.8089    0.3385   -0.7142 C   0  0  0  0  0  0
   10.0983    0.7116   -0.4381 C   0  0  0  0  0  0
   10.0157    1.7593    0.4348 N   0  3  0  0  0  0
    8.7354    2.0374    0.6977 C   0  0  0  0  0  0
   -2.3157   -2.2736   -0.0143 H   0  0  0  0  0  0
   -2.4524   -0.7408   -0.8816 H   0  0  0  0  0  0
   -2.4268   -0.7613    0.8910 H   0  0  0  0  0  0
    1.8587   -1.0410   -0.0607 H   0  0  0  0  0  0
    1.7948    2.0204    0.0670 H   0  0  0  0  0  0
    4.0010   -1.1130   -0.2056 H   0  0  0  0  0  0
    6.4429   -1.0299   -0.2062 H   0  0  0  0  0  0
    6.3038    3.2727    0.2131 H   0  0  0  0  0  0
    3.8473    3.1867    0.2228 H   0  0  0  0  0  0
    8.4328   -0.4424   -1.3593 H   0  0  0  0  0  0
   11.0420    0.3202   -0.7893 H   0  0  0  0  0  0
    8.3809    2.8112    1.3554 H   0  0  0  0  0  0
   10.8068    2.2537    0.8282 H   0  0  0  0  0  0
  1  2  1  0  0  0
  1 18  1  0  0  0
  1 19  1  0  0  0
  1 20  1  0  0  0
  2  3  1  0  0  0
  3  4  2  0  0  0
  3  5  1  0  0  0
  5  6  2  0  0  0
  5 21  1  0  0  0
  6  7  1  0  0  0
  6 22  1  0  0  0
  7 12  2  0  0  0
  7  8  1  0  0  0
  8  9  2  0  0  0
  8 23  1  0  0  0
  9 10  1  0  0  0
  9 24  1  0  0  0
 10 11  2  0  0  0
 10 13  1  0  0  0
 11 12  1  0  0  0
 11 25  1  0  0  0
 12 26  1  0  0  0
 13 17  1  0  0  0
 13 14  1  0  0  0
 14 15  2  0  0  0
 14 27  1  0  0  0
 15 16  1  0  0  0
 15 28  1  0  0  0
 16 17  2  0  0  0
 16 30  1  0  0  0
 17 29  1  0  0  0
M  CHG  1  16   1
M  END
> <s_m_entry_id>
25

> <s_m_entry_name>
biosynth_p1.0.sdf.18

> <s_m_Source_Path>
/Users/Sebastito/Downloads

> <s_m_Source_File>
biosynth_p1.0.sdf.gz

> <i_m_Source_File_Index>
18

> <chiral flag>
0

> <version>
0

> <i_m_ct_enhanced_stereo_status>
0

> <s_m_source_file>
ligprep_vs.maegz

> <i_m_source_file_index>
18

> <i_lp_mmshare_version>
37011

> <i_f3d_flags>
0

> <r_lp_tautomer_probability>
1

> <r_epik_Ionization_Penalty>
1.96591

> <r_epik_Ionization_Penalty_Charging>
0

> <r_epik_Ionization_Penalty_Neutral>
1.96591

> <r_epik_State_Penalty>
2.09207

> <r_epik_Charging_Adjusted_Penalty>
2.09207

> <i_epik_Tot_Q>
1

> <i_epik_Tot_abs_Q>
1

> <s_epik_Chemistry_Notes>
This compound has an ester and may undergo hydrolysis at high or low pH.

> <s_lp_Force_Field>
OPLS_2005

> <r_lp_Energy>
13.8423

> <b_lp_Chiralities_Consistent>
1

> <s_lp_Variant>
ZINC04025478-2

$$$$
ZINC00392003
                    3D
 Structure written by MMmdl.
 15 15  0  0  1  0            999 V2000
   -2.9899    0.5975    0.0000 C   0  0  0  0  0  0
   -1.9501    1.4405    0.0000 C   0  0  0  0  0  0
   -0.6336    1.1771    0.0000 C   0  0  0  0  0  0
    0.0674    0.0241    0.0000 C   0  0  0  0  0  0
   -0.5411   -1.3376    0.0000 C   0  0  0  0  0  0
    0.2099   -2.3134   -0.0000 O   0  0  0  0  0  0
   -1.9912   -1.6412    0.0000 C   0  0  0  0  0  0
   -2.9941   -0.7434    0.0000 C   0  0  0  0  0  0
    1.4084    0.0684   -0.0000 O   0  0  0  0  0  0
   -3.9645    1.0641    0.0000 H   0  0  0  0  0  0
   -2.2095    2.4895   -0.0000 H   0  0  0  0  0  0
   -0.0184    2.0660   -0.0000 H   0  0  0  0  0  0
   -2.2985   -2.6772    0.0000 H   0  0  0  0  0  0
   -3.9812   -1.1831    0.0000 H   0  0  0  0  0  0
    1.6629    0.9782   -0.0000 H   0  0  0  0  0  0
  1  8  1  0  0  0
  1  2  2  0  0  0
  1 10  1  0  0  0
  2  3  1  0  0  0
  2 11  1  0  0  0
  3  4  2  0  0  0
  3 12  1  0  0  0
  4  5  1  0  0  0
  4  9  1  0  0  0
  5  6  2  0  0  0
  5  7  1  0  0  0
  7  8  2  0  0  0
  7 13  1  0  0  0
  8 14  1  0  0  0
  9 15  1  0  0  0
M  END
> <s_m_entry_id>
26

> <s_m_entry_name>
biosynth_p1.0.sdf.19

> <s_m_Source_Path>
/Users/Sebastito/Downloads

> <s_m_Source_File>
biosynth_p1.0.sdf.gz

> <i_m_Source_File_Index>
19

> <chiral flag>
0

> <version>
0

> <i_m_ct_enhanced_stereo_status>
0

> <s_m_source_file>
ligprep_vs.maegz

> <i_m_source_file_index>
19

> <i_lp_mmshare_version>
37011

> <i_f3d_flags>
0

> <r_epik_Ionization_Penalty>
0.377555

> <r_epik_Ionization_Penalty_Charging>
0

> <r_epik_Ionization_Penalty_Neutral>
0.377555

> <r_epik_State_Penalty>
0.375403

> <r_epik_Charging_Adjusted_Penalty>
0.375403

> <i_epik_Tot_Q>
0

> <i_epik_Tot_abs_Q>
0

> <s_lp_Force_Field>
OPLS_2005

> <r_lp_Energy>
-3.62156

> <b_lp_Chiralities_Consistent>
1

> <s_lp_Variant>
ZINC00392003-1

$$$$
ZINC00392003
                    3D
 Structure written by MMmdl.
 14 14  0  0  1  0            999 V2000
    0.0918    1.0122   -0.2502 C   0  0  0  0  0  0
    1.0019    1.9776   -0.0683 C   0  0  0  0  0  0
    2.3358    1.8836    0.0506 C   0  0  0  0  0  0
    3.1697    0.8226    0.0267 C   0  0  0  0  0  0
    2.7663   -0.6017   -0.1515 C   0  0  0  0  0  0
    3.6373   -1.4730   -0.1532 O   0  0  0  0  0  0
    1.3755   -1.0787   -0.3317 C   0  0  0  0  0  0
    0.2680   -0.3131   -0.3631 C   0  0  0  0  0  0
    4.4971    1.1045    0.1817 O   0  5  0  0  0  0
   -0.9327    1.3497   -0.3155 H   0  0  0  0  0  0
    0.6043    2.9804   -0.0082 H   0  0  0  0  0  0
    2.8240    2.8384    0.1909 H   0  0  0  0  0  0
    1.2086   -2.1394   -0.4516 H   0  0  0  0  0  0
   -0.6475   -0.8687   -0.5054 H   0  0  0  0  0  0
  1  8  1  0  0  0
  1  2  2  0  0  0
  1 10  1  0  0  0
  2  3  1  0  0  0
  2 11  1  0  0  0
  3  4  2  0  0  0
  3 12  1  0  0  0
  4  5  1  0  0  0
  4  9  1  0  0  0
  5  6  2  0  0  0
  5  7  1  0  0  0
  7  8  2  0  0  0
  7 13  1  0  0  0
  8 14  1  0  0  0
M  CHG  1   9  -1
M  END
> <s_m_entry_id>
26

> <s_m_entry_name>
biosynth_p1.0.sdf.19

> <s_m_Source_Path>
/Users/Sebastito/Downloads

> <s_m_Source_File>
biosynth_p1.0.sdf.gz

> <i_m_Source_File_Index>
19

> <chiral flag>
0

> <version>
0

> <i_m_ct_enhanced_stereo_status>
0

> <s_m_source_file>
ligprep_vs.maegz

> <i_m_source_file_index>
19

> <i_lp_mmshare_version>
37011

> <i_f3d_flags>
0

> <r_epik_Ionization_Penalty>
0.445767

> <r_epik_Ionization_Penalty_Charging>
0.445767

> <r_epik_Ionization_Penalty_Neutral>
0

> <r_epik_State_Penalty>
0.448191

> <r_epik_Charging_Adjusted_Penalty>
0.893958

> <i_epik_Tot_Q>
-1

> <i_epik_Tot_abs_Q>
1

> <s_lp_Force_Field>
OPLS_2005

> <r_lp_Energy>
0.282417

> <b_lp_Chiralities_Consistent>
1

> <s_lp_Variant>
ZINC00392003-2

$$$$
ZINC12397092
                    3D
 Structure written by MMmdl.
 13 13  0  0  1  0            999 V2000
   -0.8409    1.0757   -0.0122 C   0  0  0  0  0  0
   -0.0411    0.0176    0.0063 C   0  0  0  0  0  0
   -0.8491   -1.2329   -0.0067 C   0  0  2  0  0  0
   -0.6809   -1.8133   -0.9143 H   0  0  0  0  0  0
   -2.2149   -0.6540   -0.0011 N   0  0  0  0  0  0
   -2.1542    0.6019   -0.0107 N   0  0  0  0  0  0
   -0.6399   -2.0403    1.1797 N   0  0  0  0  0  0
    1.3380   -0.0236    0.0128 N   0  0  0  0  0  0
   -0.5325    2.1107   -0.0168 H   0  0  0  0  0  0
   -1.2988   -2.8056    1.1873 H   0  0  0  0  0  0
    1.8440   -0.8973    0.0230 H   0  0  0  0  0  0
    1.8959    0.8180    0.0269 H   0  0  0  0  0  0
    0.2807   -2.4536    1.1488 H   0  0  0  0  0  0
  1  6  1  0  0  0
  1  2  2  0  0  0
  1  9  1  0  0  0
  2  3  1  0  0  0
  2  8  1  0  0  0
  3  4  1  0  0  0
  3  5  1  0  0  0
  3  7  1  0  0  0
  5  6  2  0  0  0
  7 10  1  0  0  0
  7 13  1  0  0  0
  8 11  1  0  0  0
  8 12  1  0  0  0
M  END
> <s_m_entry_id>
27

> <s_m_entry_name>
biosynth_p1.0.sdf.20

> <s_m_Source_Path>
/Users/Sebastito/Downloads

> <s_m_Source_File>
biosynth_p1.0.sdf.gz

> <i_m_Source_File_Index>
20

> <chiral flag>
1

> <version>
0

> <i_m_ct_enhanced_stereo_status>
0

> <s_m_source_file>
ligprep_vs.maegz

> <i_m_source_file_index>
20

> <i_lp_mmshare_version>
37011

> <r_epik_Ionization_Penalty>
0.226637

> <r_epik_Ionization_Penalty_Charging>
0

> <r_epik_Ionization_Penalty_Neutral>
0.226637

> <r_epik_State_Penalty>
0.217147

> <r_epik_Charging_Adjusted_Penalty>
0.217147

> <i_epik_Tot_Q>
0

> <i_epik_Tot_abs_Q>
0

> <s_epik_Chemistry_Notes>
This compound contains an acetal/aminal-like group ( X-CH(R)-Y where X, Y are N, S, or O) that may be acid/base labile, releasing an aldehyde.

> <i_f3d_flags>
0

> <s_lp_Force_Field>
OPLS_2005

> <r_lp_Energy>
3.52021

> <b_lp_Chiralities_Consistent>
1

> <s_lp_Variant>
ZINC12397092-1

$$$$
ZINC12397092
                    3D
 Structure written by MMmdl.
 14 14  0  0  1  0            999 V2000
   -0.8367    1.0696    0.0169 C   0  0  0  0  0  0
   -0.0395    0.0092    0.0098 C   0  0  0  0  0  0
   -0.8510   -1.2390   -0.0256 C   0  0  2  0  0  0
   -0.6687   -1.8188   -0.9311 H   0  0  0  0  0  0
   -2.2150   -0.6560   -0.0313 N   0  0  0  0  0  0
   -2.1508    0.5994   -0.0074 N   0  0  0  0  0  0
   -0.6619   -2.0491    1.1896 N   0  3  0  0  0  0
    1.3400   -0.0331    0.0103 N   0  0  0  0  0  0
   -0.5260    2.1040    0.0324 H   0  0  0  0  0  0
    0.2913   -2.3795    1.2295 H   0  0  0  0  0  0
    1.8528   -0.9017   -0.0442 H   0  0  0  0  0  0
    1.8960    0.8107    0.0110 H   0  0  0  0  0  0
   -1.2933   -2.8371    1.1704 H   0  0  0  0  0  0
   -0.8562   -1.4816    2.0020 H   0  0  0  0  0  0
  1  6  1  0  0  0
  1  2  2  0  0  0
  1  9  1  0  0  0
  2  3  1  0  0  0
  2  8  1  0  0  0
  3  4  1  0  0  0
  3  5  1  0  0  0
  3  7  1  0  0  0
  5  6  2  0  0  0
  7 10  1  0  0  0
  7 13  1  0  0  0
  7 14  1  0  0  0
  8 11  1  0  0  0
  8 12  1  0  0  0
M  CHG  1   7   1
M  END
> <s_m_entry_id>
27

> <s_m_entry_name>
biosynth_p1.0.sdf.20

> <s_m_Source_Path>
/Users/Sebastito/Downloads

> <s_m_Source_File>
biosynth_p1.0.sdf.gz

> <i_m_Source_File_Index>
20

> <chiral flag>
1

> <version>
0

> <i_m_ct_enhanced_stereo_status>
0

> <s_m_source_file>
ligprep_vs.maegz

> <i_m_source_file_index>
20

> <i_lp_mmshare_version>
37011

> <r_epik_Ionization_Penalty>
0.679101

> <r_epik_Ionization_Penalty_Charging>
0.679098

> <r_epik_Ionization_Penalty_Neutral>
2.36246e-06

> <r_epik_State_Penalty>
0.69997

> <r_epik_Charging_Adjusted_Penalty>
1.37907

> <i_epik_Tot_Q>
1

> <i_epik_Tot_abs_Q>
1

> <s_epik_Chemistry_Notes>
This compound contains an acetal/aminal-like group ( X-CH(R)-Y where X, Y are N, S, or O) that may be acid/base labile, releasing an aldehyde.

> <i_f3d_flags>
0

> <s_lp_Force_Field>
OPLS_2005

> <r_lp_Energy>
4.44599

> <b_lp_Chiralities_Consistent>
1

> <s_lp_Variant>
ZINC12397092-2

$$$$
ZINC08579950
                    3D
 Structure written by MMmdl.
 23 25  0  0  1  0            999 V2000
    0.0741   -2.7747   -0.1152 C   0  0  0  0  0  0
   -1.1295   -2.0467   -0.0925 C   0  0  0  0  0  0
   -2.3632   -2.7209   -0.1768 C   0  0  0  0  0  0
   -2.4193   -4.1270   -0.2848 C   0  0  0  0  0  0
   -1.1960   -4.8480   -0.3064 C   0  0  0  0  0  0
    0.0413   -4.1770   -0.2223 C   0  0  0  0  0  0
   -1.2365   -6.2513   -0.4137 C   0  0  0  0  0  0
   -2.4865   -6.8940   -0.4961 C   0  0  0  0  0  0
   -2.5581   -8.2981   -0.6043 C   0  0  0  0  0  0
   -3.8107   -8.9332   -0.6861 C   0  0  0  0  0  0
   -4.9882   -8.1640   -0.6596 C   0  0  0  0  0  0
   -4.9123   -6.7618   -0.5514 C   0  0  0  0  0  0
   -3.6664   -6.1039   -0.4680 C   0  0  0  0  0  0
   -3.6132   -4.7568   -0.3646 N   0  0  0  0  0  0
    1.0205   -2.2584   -0.0506 H   0  0  0  0  0  0
   -1.1073   -0.9700   -0.0104 H   0  0  0  0  0  0
   -3.2795   -2.1489   -0.1582 H   0  0  0  0  0  0
    0.9672   -4.7335   -0.2394 H   0  0  0  0  0  0
   -0.3219   -6.8266   -0.4326 H   0  0  0  0  0  0
   -1.6555   -8.8916   -0.6249 H   0  0  0  0  0  0
   -3.8682  -10.0084   -0.7691 H   0  0  0  0  0  0
   -5.9513   -8.6490   -0.7223 H   0  0  0  0  0  0
   -5.8247   -6.1837   -0.5322 H   0  0  0  0  0  0
  1  6  2  0  0  0
  1  2  1  0  0  0
  1 15  1  0  0  0
  2  3  2  0  0  0
  2 16  1  0  0  0
  3  4  1  0  0  0
  3 17  1  0  0  0
  4 14  2  0  0  0
  4  5  1  0  0  0
  5  6  1  0  0  0
  5  7  2  0  0  0
  6 18  1  0  0  0
  7  8  1  0  0  0
  7 19  1  0  0  0
  8 13  2  0  0  0
  8  9  1  0  0  0
  9 10  2  0  0  0
  9 20  1  0  0  0
 10 11  1  0  0  0
 10 21  1  0  0  0
 11 12  2  0  0  0
 11 22  1  0  0  0
 12 13  1  0  0  0
 12 23  1  0  0  0
 13 14  1  0  0  0
M  END
> <s_m_entry_id>
28

> <s_m_entry_name>
biosynth_p1.0.sdf.21

> <s_m_Source_Path>
/Users/Sebastito/Downloads

> <s_m_Source_File>
biosynth_p1.0.sdf.gz

> <i_m_Source_File_Index>
21

> <chiral flag>
0

> <version>
0

> <i_m_ct_enhanced_stereo_status>
0

> <s_m_source_file>
ligprep_vs.maegz

> <i_m_source_file_index>
21

> <i_lp_mmshare_version>
37011

> <i_f3d_flags>
0

> <r_epik_Ionization_Penalty>
0.0280768

> <r_epik_Ionization_Penalty_Charging>
0

> <r_epik_Ionization_Penalty_Neutral>
0.0280768

> <r_epik_State_Penalty>
0.0230182

> <r_epik_Charging_Adjusted_Penalty>
0.0230182

> <i_epik_Tot_Q>
0

> <i_epik_Tot_abs_Q>
0

> <s_lp_Force_Field>
OPLS_2005

> <r_lp_Energy>
13.4266

> <b_lp_Chiralities_Consistent>
1

> <s_lp_Variant>
ZINC08579950-1

$$$$
ZINC08579950
                    3D
 Structure written by MMmdl.
 24 26  0  0  1  0            999 V2000
    2.3347   -4.6550    3.1849 C   0  0  0  0  0  0
    2.3256   -6.0595    3.3020 C   0  0  0  0  0  0
    1.5763   -6.8398    2.3998 C   0  0  0  0  0  0
    0.8359   -6.2103    1.3798 C   0  0  0  0  0  0
    0.8425   -4.7976    1.2587 C   0  0  0  0  0  0
    1.5949   -4.0229    2.1654 C   0  0  0  0  0  0
    0.0935   -4.1879    0.2294 C   0  0  0  0  0  0
   -0.6457   -5.0007   -0.6567 C   0  0  0  0  0  0
   -1.4073   -4.4326   -1.6986 C   0  0  0  0  0  0
   -2.1371   -5.2653   -2.5706 C   0  0  0  0  0  0
   -2.1088   -6.6647   -2.4053 C   0  0  0  0  0  0
   -1.3502   -7.2392   -1.3667 C   0  0  0  0  0  0
   -0.6198   -6.4089   -0.4937 C   0  0  0  0  0  0
    0.1124   -6.9464    0.5072 N   0  3  0  0  0  0
    2.9109   -4.0610    3.8791 H   0  0  0  0  0  0
    2.8944   -6.5389    4.0852 H   0  0  0  0  0  0
    1.5735   -7.9161    2.4950 H   0  0  0  0  0  0
    1.6090   -2.9453    2.0847 H   0  0  0  0  0  0
    0.0862   -3.1125    0.1210 H   0  0  0  0  0  0
   -1.4360   -3.3609   -1.8344 H   0  0  0  0  0  0
   -2.7203   -4.8295   -3.3686 H   0  0  0  0  0  0
   -2.6700   -7.2983   -3.0765 H   0  0  0  0  0  0
   -1.3326   -8.3127   -1.2453 H   0  0  0  0  0  0
    0.1194   -7.9610    0.6094 H   0  0  0  0  0  0
  1  6  2  0  0  0
  1  2  1  0  0  0
  1 15  1  0  0  0
  2  3  2  0  0  0
  2 16  1  0  0  0
  3  4  1  0  0  0
  3 17  1  0  0  0
  4 14  2  0  0  0
  4  5  1  0  0  0
  5  6  1  0  0  0
  5  7  2  0  0  0
  6 18  1  0  0  0
  7  8  1  0  0  0
  7 19  1  0  0  0
  8 13  2  0  0  0
  8  9  1  0  0  0
  9 10  2  0  0  0
  9 20  1  0  0  0
 10 11  1  0  0  0
 10 21  1  0  0  0
 11 12  2  0  0  0
 11 22  1  0  0  0
 12 13  1  0  0  0
 12 23  1  0  0  0
 13 14  1  0  0  0
 14 24  1  0  0  0
M  CHG  1  14   1
M  END
> <s_m_entry_id>
28

> <s_m_entry_name>
biosynth_p1.0.sdf.21

> <s_m_Source_Path>
/Users/Sebastito/Downloads

> <s_m_Source_File>
biosynth_p1.0.sdf.gz

> <i_m_Source_File_Index>
21

> <chiral flag>
0

> <version>
0

> <i_m_ct_enhanced_stereo_status>
0

> <s_m_source_file>
ligprep_vs.maegz

> <i_m_source_file_index>
21

> <i_lp_mmshare_version>
37011

> <i_f3d_flags>
0

> <r_epik_Ionization_Penalty>
1.8207

> <r_epik_Ionization_Penalty_Charging>
1.8207

> <r_epik_Ionization_Penalty_Neutral>
0

> <r_epik_State_Penalty>
1.93589

> <r_epik_Charging_Adjusted_Penalty>
3.75659

> <i_epik_Tot_Q>
1

> <i_epik_Tot_abs_Q>
1

> <s_lp_Force_Field>
OPLS_2005

> <r_lp_Energy>
15.7895

> <b_lp_Chiralities_Consistent>
1

> <s_lp_Variant>
ZINC08579950-2

$$$$
ZINC01675532
                    3D
 Structure written by MMmdl.
 19 18  0  0  1  0            999 V2000
   -2.3471   -2.7856   -0.0022 C   0  0  0  0  0  0
   -2.0052   -1.2936    0.0094 C   0  0  0  0  0  0
   -0.5958   -1.1340   -0.0081 O   0  0  0  0  0  0
   -0.0643    0.0972    0.0596 C   0  0  0  0  0  0
   -0.7081    1.1459    0.1501 O   0  0  0  0  0  0
    1.4697    0.0496    0.0145 C   0  0  0  0  0  0
    2.0907    1.4503   -0.0203 C   0  0  0  0  0  0
    2.3778    2.0385    1.0224 O   0  0  0  0  0  0
    2.3541    2.0737   -1.3938 C   0  0  0  0  0  0
    3.2030    1.3087   -2.0798 F   0  0  0  0  0  0
    1.2143    2.1778   -2.0764 F   0  0  0  0  0  0
    2.8857    3.2893   -1.2590 F   0  0  0  0  0  0
   -3.4267   -2.9351    0.0063 H   0  0  0  0  0  0
   -1.9336   -3.2895    0.8717 H   0  0  0  0  0  0
   -1.9491   -3.2734   -0.8924 H   0  0  0  0  0  0
   -2.4425   -0.8012   -0.8603 H   0  0  0  0  0  0
   -2.4230   -0.8225    0.9002 H   0  0  0  0  0  0
    1.8389   -0.4870    0.8887 H   0  0  0  0  0  0
    1.7859   -0.5083   -0.8670 H   0  0  0  0  0  0
  1  2  1  0  0  0
  1 13  1  0  0  0
  1 14  1  0  0  0
  1 15  1  0  0  0
  2  3  1  0  0  0
  2 16  1  0  0  0
  2 17  1  0  0  0
  3  4  1  0  0  0
  4  5  2  0  0  0
  4  6  1  0  0  0
  6  7  1  0  0  0
  6 18  1  0  0  0
  6 19  1  0  0  0
  7  8  2  0  0  0
  7  9  1  0  0  0
  9 10  1  0  0  0
  9 11  1  0  0  0
  9 12  1  0  0  0
M  END
> <s_m_entry_id>
29

> <s_m_entry_name>
biosynth_p1.0.sdf.22

> <s_m_Source_Path>
/Users/Sebastito/Downloads

> <s_m_Source_File>
biosynth_p1.0.sdf.gz

> <i_m_Source_File_Index>
22

> <chiral flag>
0

> <version>
0

> <i_m_ct_enhanced_stereo_status>
0

> <s_m_source_file>
ligprep_vs.maegz

> <i_m_source_file_index>
22

> <i_lp_mmshare_version>
37011

> <r_epik_Ionization_Penalty>
0.0222942

> <r_epik_Ionization_Penalty_Charging>
0

> <r_epik_Ionization_Penalty_Neutral>
0.0222942

> <r_epik_State_Penalty>
0.0179795

> <r_epik_Charging_Adjusted_Penalty>
0.0179795

> <i_epik_Tot_Q>
0

> <i_epik_Tot_abs_Q>
0

> <s_epik_Chemistry_Notes>
This compound has an ester and may undergo hydrolysis at high or low pH.

> <i_f3d_flags>
0

> <s_lp_Force_Field>
OPLS_2005

> <r_lp_Energy>
6.25206

> <b_lp_Chiralities_Consistent>
1

> <s_lp_Variant>
ZINC01675532-1

$$$$
ZINC01675532
                    3D
 Structure written by MMmdl.
 18 17  0  0  1  0            999 V2000
   -2.2301    1.1589    0.1015 C   0  0  0  0  0  0
   -0.7230    1.3176    0.3137 C   0  0  0  0  0  0
   -0.0450    0.4020   -0.5458 O   0  0  0  0  0  0
    1.3349    0.3744   -0.5242 C   0  0  0  0  0  0
    1.9451    1.1520    0.2502 O   0  5  0  0  0  0
    1.8429   -0.5583   -1.4099 C   0  0  0  0  0  0
    3.2556   -0.8852   -1.6768 C   0  0  0  0  0  0
    4.1956   -0.3304   -1.1062 O   0  0  0  0  0  0
    3.5407   -1.9708   -2.7197 C   0  0  0  0  0  0
    2.9750   -3.1186   -2.3462 F   0  0  0  0  0  0
    3.0445   -1.6055   -3.9019 F   0  0  0  0  0  0
    4.8543   -2.1648   -2.8495 F   0  0  0  0  0  0
   -2.7878    1.8441    0.7401 H   0  0  0  0  0  0
   -2.5524    0.1441    0.3357 H   0  0  0  0  0  0
   -2.5025    1.3674   -0.9334 H   0  0  0  0  0  0
   -0.4290    2.3441    0.0884 H   0  0  0  0  0  0
   -0.4783    1.1159    1.3579 H   0  0  0  0  0  0
    1.1335   -1.1311   -1.9895 H   0  0  0  0  0  0
  1  2  1  0  0  0
  1 13  1  0  0  0
  1 14  1  0  0  0
  1 15  1  0  0  0
  2  3  1  0  0  0
  2 16  1  0  0  0
  2 17  1  0  0  0
  3  4  1  0  0  0
  4  5  1  0  0  0
  4  6  2  0  0  0
  6  7  1  0  0  0
  6 18  1  0  0  0
  7  8  2  0  0  0
  7  9  1  0  0  0
  9 10  1  0  0  0
  9 11  1  0  0  0
  9 12  1  0  0  0
M  CHG  1   5  -1
M  END
> <s_m_entry_id>
29

> <s_m_entry_name>
biosynth_p1.0.sdf.22

> <s_m_Source_Path>
/Users/Sebastito/Downloads

> <s_m_Source_File>
biosynth_p1.0.sdf.gz

> <i_m_Source_File_Index>
22

> <chiral flag>
0

> <version>
0

> <i_m_ct_enhanced_stereo_status>
0

> <s_m_source_file>
ligprep_vs.maegz

> <i_m_source_file_index>
22

> <i_lp_mmshare_version>
37011

> <r_epik_Ionization_Penalty>
1.95447

> <r_epik_Ionization_Penalty_Charging>
1.95447

> <r_epik_Ionization_Penalty_Neutral>
0

> <r_epik_State_Penalty>
2.07976

> <r_epik_Charging_Adjusted_Penalty>
4.03423

> <i_epik_Tot_Q>
-1

> <i_epik_Tot_abs_Q>
1

> <s_epik_Chemistry_Notes>
This compound has an ester and may undergo hydrolysis at high or low pH.

> <i_f3d_flags>
0

> <s_lp_Force_Field>
OPLS_2005

> <r_lp_Energy>
12.5335

> <b_lp_Chiralities_Consistent>
1

> <s_lp_Variant>
ZINC01675532-2

$$$$
ZINC98231009
                    3D
 Structure written by MMmdl.
 41 42  0  0  1  0            999 V2000
   -2.5822    1.4848   -0.5830 C   0  0  0  0  0  0
   -1.0800    1.3272   -0.7749 C   0  0  0  0  0  0
   -0.5591    2.5125   -1.1335 O   0  0  0  0  0  0
   -0.3250    0.2061   -0.6248 C   0  0  0  0  0  0
   -0.8990   -1.0960   -0.2484 C   0  0  0  0  0  0
   -2.1003   -1.3325   -0.1232 O   0  0  0  0  0  0
    0.0539   -2.0362   -0.0779 N   0  0  0  0  0  0
   -0.0680   -3.4096    0.2728 C   0  0  0  0  0  0
   -1.1853   -3.9394    0.9645 C   0  0  0  0  0  0
   -1.2333   -5.3068    1.2978 C   0  0  0  0  0  0
   -0.1652   -6.1555    0.9551 C   0  0  0  0  0  0
    0.9562   -5.6341    0.2843 C   0  0  0  0  0  0
    1.0100   -4.2671   -0.0521 C   0  0  0  0  0  0
    2.4109   -3.6614   -0.8678 Cl  0  0  0  0  0  0
    1.0532    0.3429   -0.8662 N   0  0  0  0  0  0
    1.7467    0.7188    0.0992 N   0  0  0  0  0  0
    3.1473    0.8236   -0.0971 C   0  0  0  0  0  0
    3.8057    0.0870   -1.1157 C   0  0  0  0  0  0
    5.2015    0.1659   -1.2711 C   0  0  0  0  0  0
    5.9544    0.9744   -0.4003 C   0  0  0  0  0  0
    5.3154    1.7132    0.6133 C   0  0  0  0  0  0
    3.9133    1.6480    0.7727 C   0  0  0  0  0  0
    3.2886    2.4438    1.8448 N   0  3  0  0  0  0
    2.2847    3.0977    1.5802 O   0  0  0  0  0  0
    3.8271    2.4314    2.9465 O   0  5  0  0  0  0
    7.7327    1.0814   -0.5987 S   0  0  0  0  0  0
    8.1101   -0.2447   -1.1124 O   0  0  0  0  0  0
    7.8916    2.1825   -1.5608 O   0  0  0  0  0  0
    8.2246    1.3730    0.7570 O   0  5  0  0  0  0
   -3.1233    0.8644   -1.2978 H   0  0  0  0  0  0
   -2.9110    2.5154   -0.7257 H   0  0  0  0  0  0
   -2.8704    1.1858    0.4251 H   0  0  0  0  0  0
    0.9943   -1.7355   -0.2913 H   0  0  0  0  0  0
   -2.0127   -3.3160    1.2650 H   0  0  0  0  0  0
   -2.0896   -5.7032    1.8233 H   0  0  0  0  0  0
   -0.2026   -7.2038    1.2128 H   0  0  0  0  0  0
    1.7791   -6.2856    0.0291 H   0  0  0  0  0  0
    3.2535   -0.5574   -1.7842 H   0  0  0  0  0  0
    5.6876   -0.3978   -2.0534 H   0  0  0  0  0  0
    5.9007    2.3423    1.2678 H   0  0  0  0  0  0
   -1.2684    3.1360   -1.1669 H   0  0  0  0  0  0
  1  2  1  0  0  0
  1 30  1  0  0  0
  1 31  1  0  0  0
  1 32  1  0  0  0
  2  3  1  0  0  0
  2  4  2  0  0  0
  3 41  1  0  0  0
  4  5  1  0  0  0
  4 15  1  0  0  0
  5  6  2  0  0  0
  5  7  1  0  0  0
  7  8  1  0  0  0
  7 33  1  0  0  0
  8 13  2  0  0  0
  8  9  1  0  0  0
  9 10  2  0  0  0
  9 34  1  0  0  0
 10 11  1  0  0  0
 10 35  1  0  0  0
 11 12  2  0  0  0
 11 36  1  0  0  0
 12 13  1  0  0  0
 12 37  1  0  0  0
 13 14  1  0  0  0
 15 16  2  0  0  0
 16 17  1  0  0  0
 17 22  2  0  0  0
 17 18  1  0  0  0
 18 19  2  0  0  0
 18 38  1  0  0  0
 19 20  1  0  0  0
 19 39  1  0  0  0
 20 21  2  0  0  0
 20 26  1  0  0  0
 21 22  1  0  0  0
 21 40  1  0  0  0
 22 23  1  0  0  0
 23 24  2  0  0  0
 23 25  1  0  0  0
 26 27  2  0  0  0
 26 28  2  0  0  0
 26 29  1  0  0  0
M  CHG  3  23   1  25  -1  29  -1
M  END
> <s_m_entry_id>
30

> <s_m_entry_name>
biosynth_p1.0.sdf.23

> <s_m_Source_Path>
/Users/Sebastito/Downloads

> <s_m_Source_File>
biosynth_p1.0.sdf.gz

> <i_m_Source_File_Index>
23

> <chiral flag>
0

> <version>
0

> <i_m_ct_enhanced_stereo_status>
0

> <s_m_source_file>
ligprep_vs.maegz

> <i_m_source_file_index>
23

> <i_lp_mmshare_version>
37011

> <r_epik_Ionization_Penalty>
0.02824

> <r_epik_Ionization_Penalty_Charging>
3.21597e-07

> <r_epik_Ionization_Penalty_Neutral>
0.0282396

> <r_epik_State_Penalty>
0.0347331

> <r_epik_Charging_Adjusted_Penalty>
0.0347334

> <i_epik_Tot_Q>
-1

> <i_epik_Tot_abs_Q>
3

> <i_f3d_flags>
0

> <s_lp_Force_Field>
OPLS_2005

> <r_lp_Energy>
40.7497

> <b_lp_Chiralities_Consistent>
1

> <s_lp_Variant>
ZINC98231009-1

$$$$
ZINC98231009
                    3D
 Structure written by MMmdl.
 40 41  0  0  1  0            999 V2000
   -2.6162    1.3667    0.5741 C   0  0  0  0  0  0
   -1.1014    1.3353    0.7996 C   0  0  0  0  0  0
   -0.7356    2.4957    1.1040 O   0  5  0  0  0  0
   -0.3602    0.1554    0.6585 C   0  0  0  0  0  0
   -0.9189   -1.1634    0.3134 C   0  0  0  0  0  0
   -2.1171   -1.4330    0.2335 O   0  0  0  0  0  0
    0.0479   -2.0846    0.1195 N   0  0  0  0  0  0
   -0.0584   -3.4641   -0.2111 C   0  0  0  0  0  0
   -1.1761   -4.0155   -0.8848 C   0  0  0  0  0  0
   -1.2115   -5.3872   -1.2008 C   0  0  0  0  0  0
   -0.1300   -6.2193   -0.8585 C   0  0  0  0  0  0
    0.9921   -5.6764   -0.2060 C   0  0  0  0  0  0
    1.0334   -4.3044    0.1128 C   0  0  0  0  0  0
    2.4355   -3.6730    0.9061 Cl  0  0  0  0  0  0
    1.0191    0.2943    0.8945 N   0  0  0  0  0  0
    1.7048    0.7049   -0.0624 N   0  0  0  0  0  0
    3.1070    0.8186    0.1244 C   0  0  0  0  0  0
    3.7706    0.1538    1.1885 C   0  0  0  0  0  0
    5.1668    0.2458    1.3332 C   0  0  0  0  0  0
    5.9161    0.9972    0.4108 C   0  0  0  0  0  0
    5.2730    1.6611   -0.6521 C   0  0  0  0  0  0
    3.8704    1.5819   -0.8016 C   0  0  0  0  0  0
    3.2425    2.2970   -1.9268 N   0  3  0  0  0  0
    2.2548    2.9894   -1.7036 O   0  0  0  0  0  0
    3.7654    2.1849   -3.0307 O   0  5  0  0  0  0
    7.6949    1.0943    0.6159 S   0  0  0  0  0  0
    7.8459    1.8349    1.8781 O   0  0  0  0  0  0
    8.1033   -0.3176    0.6801 O   0  0  0  0  0  0
    8.1672    1.8139   -0.5776 O   0  5  0  0  0  0
   -2.8690    1.0044   -0.4228 H   0  0  0  0  0  0
   -3.0456    2.3678    0.6579 H   0  0  0  0  0  0
   -3.1306    0.7434    1.3060 H   0  0  0  0  0  0
    0.9869   -1.7600    0.3021 H   0  0  0  0  0  0
   -2.0128   -3.4038   -1.1836 H   0  0  0  0  0  0
   -2.0683   -5.7999   -1.7125 H   0  0  0  0  0  0
   -0.1577   -7.2709   -1.1029 H   0  0  0  0  0  0
    1.8253   -6.3149    0.0484 H   0  0  0  0  0  0
    3.2227   -0.4445    1.9018 H   0  0  0  0  0  0
    5.6619   -0.2644    2.1464 H   0  0  0  0  0  0
    5.8486    2.2427   -1.3565 H   0  0  0  0  0  0
  1  2  1  0  0  0
  1 30  1  0  0  0
  1 31  1  0  0  0
  1 32  1  0  0  0
  2  3  1  0  0  0
  2  4  2  0  0  0
  4  5  1  0  0  0
  4 15  1  0  0  0
  5  6  2  0  0  0
  5  7  1  0  0  0
  7  8  1  0  0  0
  7 33  1  0  0  0
  8 13  2  0  0  0
  8  9  1  0  0  0
  9 10  2  0  0  0
  9 34  1  0  0  0
 10 11  1  0  0  0
 10 35  1  0  0  0
 11 12  2  0  0  0
 11 36  1  0  0  0
 12 13  1  0  0  0
 12 37  1  0  0  0
 13 14  1  0  0  0
 15 16  2  0  0  0
 16 17  1  0  0  0
 17 22  2  0  0  0
 17 18  1  0  0  0
 18 19  2  0  0  0
 18 38  1  0  0  0
 19 20  1  0  0  0
 19 39  1  0  0  0
 20 21  2  0  0  0
 20 26  1  0  0  0
 21 22  1  0  0  0
 21 40  1  0  0  0
 22 23  1  0  0  0
 23 24  2  0  0  0
 23 25  1  0  0  0
 26 27  2  0  0  0
 26 28  2  0  0  0
 26 29  1  0  0  0
M  CHG  4   3  -1  23   1  25  -1  29  -1
M  END
> <s_m_entry_id>
30

> <s_m_entry_name>
biosynth_p1.0.sdf.23

> <s_m_Source_Path>
/Users/Sebastito/Downloads

> <s_m_Source_File>
biosynth_p1.0.sdf.gz

> <i_m_Source_File_Index>
23

> <chiral flag>
0

> <version>
0

> <i_m_ct_enhanced_stereo_status>
0

> <s_m_source_file>
ligprep_vs.maegz

> <i_m_source_file_index>
23

> <i_lp_mmshare_version>
37011

> <r_epik_Ionization_Penalty>
0.254683

> <r_epik_Ionization_Penalty_Charging>
0.254682

> <r_epik_Ionization_Penalty_Neutral>
5.12986e-07

> <r_epik_State_Penalty>
1.94411

> <r_epik_Charging_Adjusted_Penalty>
2.19879

> <i_epik_Tot_Q>
-2

> <i_epik_Tot_abs_Q>
4

> <i_f3d_flags>
0

> <s_lp_Force_Field>
OPLS_2005

> <r_lp_Energy>
45.0767

> <b_lp_Chiralities_Consistent>
1

> <s_lp_Variant>
ZINC98231009-2

$$$$
ZINC98231009
                    3D
 Structure written by MMmdl.
 41 42  0  0  1  0            999 V2000
   -0.3435   -0.4120    2.6242 C   0  0  0  0  0  0
   -0.4163   -1.0678    1.2479 C   0  0  0  0  0  0
   -0.6772   -2.2696    1.1794 O   0  0  0  0  0  0
   -0.1501   -0.1504    0.0323 C   0  0  2  0  0  0
   -0.7560   -0.7781   -1.2495 C   0  0  0  0  0  0
   -0.2464   -1.7836   -1.7481 O   0  0  0  0  0  0
   -1.8196   -0.1358   -1.7681 N   0  0  0  0  0  0
   -2.5738   -0.4640   -2.9286 C   0  0  0  0  0  0
   -2.7318   -1.7956   -3.3857 C   0  0  0  0  0  0
   -3.5079   -2.0692   -4.5283 C   0  0  0  0  0  0
   -4.1420   -1.0200   -5.2183 C   0  0  0  0  0  0
   -4.0054    0.3035   -4.7606 C   0  0  0  0  0  0
   -3.2298    0.5834   -3.6179 C   0  0  0  0  0  0
   -3.0908    2.2226   -3.0836 Cl  0  0  0  0  0  0
    1.2874    0.2161    0.0656 N   0  0  0  0  0  0
    1.9651    0.0296   -0.9648 N   0  0  0  0  0  0
    3.3468    0.3524   -0.9407 C   0  0  0  0  0  0
    3.9872    0.8151    0.2388 C   0  0  0  0  0  0
    5.3531    1.1509    0.2293 C   0  0  0  0  0  0
    6.0937    1.0277   -0.9594 C   0  0  0  0  0  0
    5.4729    0.5735   -2.1388 C   0  0  0  0  0  0
    4.1042    0.2242   -2.1384 C   0  0  0  0  0  0
    3.5012   -0.2561   -3.3951 N   0  3  0  0  0  0
    2.8026   -1.2641   -3.3627 O   0  0  0  0  0  0
    3.7556    0.3683   -4.4196 O   0  5  0  0  0  0
    7.8300    1.4732   -0.9557 S   0  0  0  0  0  0
    7.7923    2.9436   -0.9737 O   0  0  0  0  0  0
    8.3310    0.8857    0.2968 O   0  0  0  0  0  0
    8.3682    0.8560   -2.1782 O   0  5  0  0  0  0
    0.1990    0.5325    2.5799 H   0  0  0  0  0  0
    0.1670   -1.0682    3.3293 H   0  0  0  0  0  0
   -1.3475   -0.2153    3.0001 H   0  0  0  0  0  0
   -2.0681    0.7371   -1.3254 H   0  0  0  0  0  0
   -2.2777   -2.6248   -2.8653 H   0  0  0  0  0  0
   -3.6211   -3.0869   -4.8718 H   0  0  0  0  0  0
   -4.7386   -1.2309   -6.0936 H   0  0  0  0  0  0
   -4.4993    1.1064   -5.2880 H   0  0  0  0  0  0
    3.4449    0.9248    1.1663 H   0  0  0  0  0  0
    5.8285    1.5066    1.1317 H   0  0  0  0  0  0
    6.0447    0.4841   -3.0505 H   0  0  0  0  0  0
   -0.7012    0.7742    0.2124 H   0  0  0  0  0  0
  1  2  1  0  0  0
  1 30  1  0  0  0
  1 31  1  0  0  0
  1 32  1  0  0  0
  2  3  2  0  0  0
  2  4  1  0  0  0
  4  5  1  0  0  0
  4 15  1  0  0  0
  4 41  1  0  0  0
  5  6  2  0  0  0
  5  7  1  0  0  0
  7  8  1  0  0  0
  7 33  1  0  0  0
  8 13  2  0  0  0
  8  9  1  0  0  0
  9 10  2  0  0  0
  9 34  1  0  0  0
 10 11  1  0  0  0
 10 35  1  0  0  0
 11 12  2  0  0  0
 11 36  1  0  0  0
 12 13  1  0  0  0
 12 37  1  0  0  0
 13 14  1  0  0  0
 15 16  2  0  0  0
 16 17  1  0  0  0
 17 22  2  0  0  0
 17 18  1  0  0  0
 18 19  2  0  0  0
 18 38  1  0  0  0
 19 20  1  0  0  0
 19 39  1  0  0  0
 20 21  2  0  0  0
 20 26  1  0  0  0
 21 22  1  0  0  0
 21 40  1  0  0  0
 22 23  1  0  0  0
 23 24  2  0  0  0
 23 25  1  0  0  0
 26 27  2  0  0  0
 26 28  2  0  0  0
 26 29  1  0  0  0
M  CHG  3  23   1  25  -1  29  -1
M  END
> <s_m_entry_id>
30

> <s_m_entry_name>
biosynth_p1.0.sdf.23

> <s_m_Source_Path>
/Users/Sebastito/Downloads

> <s_m_Source_File>
biosynth_p1.0.sdf.gz

> <i_m_Source_File_Index>
23

> <chiral flag>
0

> <version>
0

> <i_m_ct_enhanced_stereo_status>
0

> <s_m_source_file>
ligprep_vs.maegz

> <i_m_source_file_index>
23

> <i_lp_mmshare_version>
37011

> <r_epik_Ionization_Penalty>
0.623031

> <r_epik_Ionization_Penalty_Charging>
3.40251e-07

> <r_epik_Ionization_Penalty_Neutral>
0.623031

> <r_epik_State_Penalty>
2.33717

> <r_epik_Charging_Adjusted_Penalty>
2.33717

> <i_epik_Tot_Q>
-1

> <i_epik_Tot_abs_Q>
3

> <i_f3d_flags>
0

> <s_lp_Force_Field>
OPLS_2005

> <r_lp_Energy>
33.0589

> <b_lp_Chiralities_Consistent>
1

> <s_lp_Variant>
ZINC98231009-3

$$$$
ZINC98231009
                    3D
 Structure written by MMmdl.
 41 42  0  0  1  0            999 V2000
   -0.7752   -0.5838   -2.7301 C   0  0  0  0  0  0
   -0.7864   -1.1866   -1.3286 C   0  0  0  0  0  0
   -1.3332   -2.2760   -1.1505 O   0  0  0  0  0  0
   -0.0844   -0.3647   -0.2253 C   0  0  1  0  0  0
   -0.5592   -0.8236    1.1651 C   0  0  0  0  0  0
    0.1759   -1.5255    1.8607 O   0  0  0  0  0  0
   -1.7708   -0.3761    1.5492 N   0  0  0  0  0  0
   -2.4769   -0.6276    2.7592 C   0  0  0  0  0  0
   -2.2591   -1.7810    3.5533 C   0  0  0  0  0  0
   -3.0013   -1.9854    4.7322 C   0  0  0  0  0  0
   -3.9749   -1.0493    5.1250 C   0  0  0  0  0  0
   -4.2111    0.0895    4.3333 C   0  0  0  0  0  0
   -3.4709    0.3000    3.1528 C   0  0  0  0  0  0
   -3.7963    1.7091    2.2039 Cl  0  0  0  0  0  0
    1.3663   -0.4764   -0.4536 N   0  0  0  0  0  0
    1.9605    0.5953   -0.6797 N   0  0  0  0  0  0
    3.3657    0.5554   -0.8835 C   0  0  0  0  0  0
    4.0918   -0.6646   -0.8455 C   0  0  0  0  0  0
    5.4788   -0.6842   -1.0768 C   0  0  0  0  0  0
    6.1553    0.5163   -1.3558 C   0  0  0  0  0  0
    5.4532    1.7357   -1.3880 C   0  0  0  0  0  0
    4.0613    1.7683   -1.1490 C   0  0  0  0  0  0
    3.3732    3.0713   -1.1892 N   0  3  0  0  0  0
    2.5883    3.3479   -0.2878 O   0  0  0  0  0  0
    3.6457    3.8274   -2.1157 O   0  5  0  0  0  0
    7.9238    0.4920   -1.6432 S   0  0  0  0  0  0
    8.1600    1.6589   -2.5079 O   0  0  0  0  0  0
    8.4798    0.6085   -0.2864 O   0  0  0  0  0  0
    8.1554   -0.8069   -2.2944 O   0  5  0  0  0  0
   -1.1634    0.4345   -2.7080 H   0  0  0  0  0  0
   -1.3932   -1.1735   -3.4075 H   0  0  0  0  0  0
    0.2410   -0.5588   -3.1236 H   0  0  0  0  0  0
   -2.2190    0.2747    0.9204 H   0  0  0  0  0  0
   -1.5377   -2.5322    3.2720 H   0  0  0  0  0  0
   -2.8264   -2.8659    5.3328 H   0  0  0  0  0  0
   -4.5446   -1.2079    6.0288 H   0  0  0  0  0  0
   -4.9647    0.8029    4.6327 H   0  0  0  0  0  0
    3.6012   -1.6052   -0.6425 H   0  0  0  0  0  0
    6.0167   -1.6201   -1.0406 H   0  0  0  0  0  0
    5.9846    2.6549   -1.5862 H   0  0  0  0  0  0
   -0.3982    0.6771   -0.3311 H   0  0  0  0  0  0
  1  2  1  0  0  0
  1 30  1  0  0  0
  1 31  1  0  0  0
  1 32  1  0  0  0
  2  3  2  0  0  0
  2  4  1  0  0  0
  4  5  1  0  0  0
  4 15  1  0  0  0
  4 41  1  0  0  0
  5  6  2  0  0  0
  5  7  1  0  0  0
  7  8  1  0  0  0
  7 33  1  0  0  0
  8 13  2  0  0  0
  8  9  1  0  0  0
  9 10  2  0  0  0
  9 34  1  0  0  0
 10 11  1  0  0  0
 10 35  1  0  0  0
 11 12  2  0  0  0
 11 36  1  0  0  0
 12 13  1  0  0  0
 12 37  1  0  0  0
 13 14  1  0  0  0
 15 16  2  0  0  0
 16 17  1  0  0  0
 17 22  2  0  0  0
 17 18  1  0  0  0
 18 19  2  0  0  0
 18 38  1  0  0  0
 19 20  1  0  0  0
 19 39  1  0  0  0
 20 21  2  0  0  0
 20 26  1  0  0  0
 21 22  1  0  0  0
 21 40  1  0  0  0
 22 23  1  0  0  0
 23 24  2  0  0  0
 23 25  1  0  0  0
 26 27  2  0  0  0
 26 28  2  0  0  0
 26 29  1  0  0  0
M  CHG  3  23   1  25  -1  29  -1
M  END
> <s_m_entry_id>
30

> <s_m_entry_name>
biosynth_p1.0.sdf.23

> <s_m_Source_Path>
/Users/Sebastito/Downloads

> <s_m_Source_File>
biosynth_p1.0.sdf.gz

> <i_m_Source_File_Index>
23

> <chiral flag>
0

> <version>
0

> <i_m_ct_enhanced_stereo_status>
0

> <s_m_source_file>
ligprep_vs.maegz

> <i_m_source_file_index>
23

> <i_lp_mmshare_version>
37011

> <r_epik_Ionization_Penalty>
0.623031

> <r_epik_Ionization_Penalty_Charging>
3.40251e-07

> <r_epik_Ionization_Penalty_Neutral>
0.623031

> <r_epik_State_Penalty>
2.33717

> <r_epik_Charging_Adjusted_Penalty>
2.33717

> <i_epik_Tot_Q>
-1

> <i_epik_Tot_abs_Q>
3

> <i_f3d_flags>
0

> <s_lp_Force_Field>
OPLS_2005

> <r_lp_Energy>
27.2758

> <b_lp_Chiralities_Consistent>
1

> <s_lp_Variant>
ZINC98231009-4

$$$$
ZINC98231021
                    3D
 Structure written by MMmdl.
 44 46  0  0  1  0            999 V2000
   -2.7228    1.5975   -1.4766 C   0  0  0  0  0  0
   -1.2101    1.4728   -1.5977 C   0  0  0  0  0  0
   -0.7215    2.6003   -2.1409 O   0  0  0  0  0  0
   -0.4199    0.4266   -1.2394 C   0  0  0  0  0  0
   -0.9591   -0.8095   -0.6476 C   0  0  0  0  0  0
   -2.1239   -0.9708   -0.2825 O   0  0  0  0  0  0
   -0.0175   -1.7676   -0.5171 N   0  0  0  0  0  0
   -0.1444   -3.0802    0.0108 C   0  0  0  0  0  0
    1.0315   -3.6702    0.5521 C   0  0  0  0  0  0
    1.0201   -4.9811    1.0850 C   0  0  0  0  0  0
   -0.1993   -5.6719    1.0435 C   0  0  0  0  0  0
   -1.3392   -5.1149    0.5077 C   0  0  0  0  0  0
   -1.3602   -3.8184   -0.0285 C   0  0  0  0  0  0
   -2.3449   -6.0789    0.6208 N   0  0  0  0  0  0
   -3.2935   -5.9401    0.3041 H   0  0  0  0  0  0
   -1.8465   -7.1872    1.2057 C   0  0  0  0  0  0
   -2.4658   -8.2192    1.4521 O   0  0  0  0  0  0
   -0.5442   -6.9573    1.4697 N   0  0  0  0  0  0
    0.1041   -7.5977    1.9043 H   0  0  0  0  0  0
    0.9558    0.5870   -1.4800 N   0  0  0  0  0  0
    1.6599    0.8739   -0.4916 N   0  0  0  0  0  0
    3.0563    1.0221   -0.6890 C   0  0  0  0  0  0
    3.6471    1.0305   -1.9783 C   0  0  0  0  0  0
    5.0375    1.1822   -2.1232 C   0  0  0  0  0  0
    5.8491    1.3278   -0.9855 C   0  0  0  0  0  0
    5.2719    1.3226    0.2975 C   0  0  0  0  0  0
    3.8709    1.1706    0.4601 C   0  0  0  0  0  0
    3.2464    1.1554    1.6918 O   0  0  0  0  0  0
    4.0443    1.3108    2.8564 C   0  0  0  0  0  0
   -3.2159    0.7837   -2.0088 H   0  0  0  0  0  0
   -3.0948    2.5348   -1.8932 H   0  0  0  0  0  0
   -3.0238    1.5603   -0.4293 H   0  0  0  0  0  0
    0.9222   -1.4882   -0.7594 H   0  0  0  0  0  0
    1.9545   -3.1087    0.5643 H   0  0  0  0  0  0
    1.9103   -5.4290    1.5012 H   0  0  0  0  0  0
   -2.2686   -3.4268   -0.4597 H   0  0  0  0  0  0
    3.0479    0.9251   -2.8709 H   0  0  0  0  0  0
    5.4808    1.1882   -3.1082 H   0  0  0  0  0  0
    6.9172    1.4447   -1.0962 H   0  0  0  0  0  0
    5.9304    1.4370    1.1448 H   0  0  0  0  0  0
    3.4030    1.2809    3.7372 H   0  0  0  0  0  0
    4.5632    2.2704    2.8597 H   0  0  0  0  0  0
    4.7724    0.5041    2.9523 H   0  0  0  0  0  0
   -1.4519    3.1778   -2.3021 H   0  0  0  0  0  0
  1  2  1  0  0  0
  1 30  1  0  0  0
  1 31  1  0  0  0
  1 32  1  0  0  0
  2  3  1  0  0  0
  2  4  2  0  0  0
  3 44  1  0  0  0
  4  5  1  0  0  0
  4 20  1  0  0  0
  5  6  2  0  0  0
  5  7  1  0  0  0
  7  8  1  0  0  0
  7 33  1  0  0  0
  8 13  2  0  0  0
  8  9  1  0  0  0
  9 10  2  0  0  0
  9 34  1  0  0  0
 10 11  1  0  0  0
 10 35  1  0  0  0
 11 18  1  0  0  0
 11 12  2  0  0  0
 12 13  1  0  0  0
 12 14  1  0  0  0
 13 36  1  0  0  0
 14 15  1  0  0  0
 14 16  1  0  0  0
 16 17  2  0  0  0
 16 18  1  0  0  0
 18 19  1  0  0  0
 20 21  2  0  0  0
 21 22  1  0  0  0
 22 27  2  0  0  0
 22 23  1  0  0  0
 23 24  2  0  0  0
 23 37  1  0  0  0
 24 25  1  0  0  0
 24 38  1  0  0  0
 25 26  2  0  0  0
 25 39  1  0  0  0
 26 27  1  0  0  0
 26 40  1  0  0  0
 27 28  1  0  0  0
 28 29  1  0  0  0
 29 41  1  0  0  0
 29 42  1  0  0  0
 29 43  1  0  0  0
M  END
> <s_m_entry_id>
31

> <s_m_entry_name>
biosynth_p1.0.sdf.24

> <s_m_Source_Path>
/Users/Sebastito/Downloads

> <s_m_Source_File>
biosynth_p1.0.sdf.gz

> <i_m_Source_File_Index>
24

> <chiral flag>
0

> <version>
0

> <i_m_ct_enhanced_stereo_status>
0

> <s_m_source_file>
ligprep_vs.maegz

> <i_m_source_file_index>
24

> <i_lp_mmshare_version>
37011

> <r_epik_Ionization_Penalty>
0.0282454

> <r_epik_Ionization_Penalty_Charging>
1.64743e-05

> <r_epik_Ionization_Penalty_Neutral>
0.0282289

> <r_epik_State_Penalty>
0.0347331

> <r_epik_Charging_Adjusted_Penalty>
0.0347496

> <i_epik_Tot_Q>
0

> <i_epik_Tot_abs_Q>
0

> <i_f3d_flags>
0

> <s_lp_Force_Field>
OPLS_2005

> <r_lp_Energy>
60.0536

> <b_lp_Chiralities_Consistent>
1

> <s_lp_Variant>
ZINC98231021-1

$$$$
ZINC98231021
                    3D
 Structure written by MMmdl.
 43 45  0  0  1  0            999 V2000
   -2.7437    1.4454   -1.7077 C   0  0  0  0  0  0
   -1.2162    1.4487   -1.8253 C   0  0  0  0  0  0
   -0.8767    2.5227   -2.3767 O   0  5  0  0  0  0
   -0.4405    0.3793   -1.3648 C   0  0  0  0  0  0
   -0.9715   -0.8381   -0.7263 C   0  0  0  0  0  0
   -2.1226   -0.9834   -0.3152 O   0  0  0  0  0  0
   -0.0324   -1.7991   -0.6027 N   0  0  0  0  0  0
   -0.1524   -3.0978   -0.0413 C   0  0  0  0  0  0
    1.0295   -3.6777    0.4975 C   0  0  0  0  0  0
    1.0221   -4.9755    1.0617 C   0  0  0  0  0  0
   -0.1996   -5.6637    1.0527 C   0  0  0  0  0  0
   -1.3453   -5.1166    0.5189 C   0  0  0  0  0  0
   -1.3704   -3.8331   -0.0471 C   0  0  0  0  0  0
   -2.3517   -6.0746    0.6679 N   0  0  0  0  0  0
   -3.3039   -5.9403    0.3602 H   0  0  0  0  0  0
   -1.8484   -7.1698    1.2726 C   0  0  0  0  0  0
   -2.4673   -8.1933    1.5526 O   0  0  0  0  0  0
   -0.5420   -6.9376    1.5137 N   0  0  0  0  0  0
    0.1103   -7.5690    1.9556 H   0  0  0  0  0  0
    0.9406    0.5424   -1.5704 N   0  0  0  0  0  0
    1.6195    0.8472   -0.5695 N   0  0  0  0  0  0
    3.0178    1.0074   -0.7419 C   0  0  0  0  0  0
    3.6209    1.0876   -2.0228 C   0  0  0  0  0  0
    5.0121    1.2518   -2.1460 C   0  0  0  0  0  0
    5.8121    1.3390   -0.9940 C   0  0  0  0  0  0
    5.2223    1.2635    0.2812 C   0  0  0  0  0  0
    3.8201    1.0992    0.4217 C   0  0  0  0  0  0
    3.1841    1.0182    1.6449 O   0  0  0  0  0  0
    3.9687    1.1255    2.8236 C   0  0  0  0  0  0
   -3.1694    0.5596   -2.1795 H   0  0  0  0  0  0
   -3.2159    2.3071   -2.1852 H   0  0  0  0  0  0
   -3.0522    1.4584   -0.6621 H   0  0  0  0  0  0
    0.9002   -1.5283   -0.8796 H   0  0  0  0  0  0
    1.9533   -3.1173    0.4834 H   0  0  0  0  0  0
    1.9168   -5.4158    1.4765 H   0  0  0  0  0  0
   -2.2828   -3.4471   -0.4753 H   0  0  0  0  0  0
    3.0288    1.0295   -2.9245 H   0  0  0  0  0  0
    5.4644    1.3119   -3.1249 H   0  0  0  0  0  0
    6.8806    1.4649   -1.0878 H   0  0  0  0  0  0
    5.8719    1.3352    1.1398 H   0  0  0  0  0  0
    3.3181    1.0556    3.6953 H   0  0  0  0  0  0
    4.4841    2.0858    2.8737 H   0  0  0  0  0  0
    4.6985    0.3175    2.8917 H   0  0  0  0  0  0
  1  2  1  0  0  0
  1 30  1  0  0  0
  1 31  1  0  0  0
  1 32  1  0  0  0
  2  3  1  0  0  0
  2  4  2  0  0  0
  4  5  1  0  0  0
  4 20  1  0  0  0
  5  6  2  0  0  0
  5  7  1  0  0  0
  7  8  1  0  0  0
  7 33  1  0  0  0
  8 13  2  0  0  0
  8  9  1  0  0  0
  9 10  2  0  0  0
  9 34  1  0  0  0
 10 11  1  0  0  0
 10 35  1  0  0  0
 11 18  1  0  0  0
 11 12  2  0  0  0
 12 13  1  0  0  0
 12 14  1  0  0  0
 13 36  1  0  0  0
 14 15  1  0  0  0
 14 16  1  0  0  0
 16 17  2  0  0  0
 16 18  1  0  0  0
 18 19  1  0  0  0
 20 21  2  0  0  0
 21 22  1  0  0  0
 22 27  2  0  0  0
 22 23  1  0  0  0
 23 24  2  0  0  0
 23 37  1  0  0  0
 24 25  1  0  0  0
 24 38  1  0  0  0
 25 26  2  0  0  0
 25 39  1  0  0  0
 26 27  1  0  0  0
 26 40  1  0  0  0
 27 28  1  0  0  0
 28 29  1  0  0  0
 29 41  1  0  0  0
 29 42  1  0  0  0
 29 43  1  0  0  0
M  CHG  1   3  -1
M  END
> <s_m_entry_id>
31

> <s_m_entry_name>
biosynth_p1.0.sdf.24

> <s_m_Source_Path>
/Users/Sebastito/Downloads

> <s_m_Source_File>
biosynth_p1.0.sdf.gz

> <i_m_Source_File_Index>
24

> <chiral flag>
0

> <version>
0

> <i_m_ct_enhanced_stereo_status>
0

> <s_m_source_file>
ligprep_vs.maegz

> <i_m_source_file_index>
24

> <i_lp_mmshare_version>
37011

> <r_epik_Ionization_Penalty>
0.254696

> <r_epik_Ionization_Penalty_Charging>
0.254696

> <r_epik_Ionization_Penalty_Neutral>
2.00666e-07

> <r_epik_State_Penalty>
1.94411

> <r_epik_Charging_Adjusted_Penalty>
2.19881

> <i_epik_Tot_Q>
-1

> <i_epik_Tot_abs_Q>
1

> <i_f3d_flags>
0

> <s_lp_Force_Field>
OPLS_2005

> <r_lp_Energy>
58.425

> <b_lp_Chiralities_Consistent>
1

> <s_lp_Variant>
ZINC98231021-2

$$$$
ZINC98231021
                    3D
 Structure written by MMmdl.
 44 46  0  0  1  0            999 V2000
   -1.9913   -1.9493   -1.9153 C   0  0  0  0  0  0
   -0.5003   -1.9912   -1.5894 C   0  0  0  0  0  0
    0.2103   -2.8282   -2.1472 O   0  0  0  0  0  0
    0.0233   -0.9580   -0.5697 C   0  0  1  0  0  0
   -0.5015   -1.3549    0.8180 C   0  0  0  0  0  0
   -0.0185   -2.3276    1.3998 O   0  0  0  0  0  0
   -1.4613   -0.5629    1.3335 N   0  0  0  0  0  0
   -2.1501   -0.7028    2.5680 C   0  0  0  0  0  0
   -2.6745    0.4825    3.1542 C   0  0  0  0  0  0
   -3.3968    0.4459    4.3707 C   0  0  0  0  0  0
   -3.5811   -0.8125    4.9613 C   0  0  0  0  0  0
   -3.0904   -1.9674    4.3936 C   0  0  0  0  0  0
   -2.3692   -1.9638    3.1898 C   0  0  0  0  0  0
   -3.4690   -3.0172    5.2351 N   0  0  0  0  0  0
   -3.2425   -3.9856    5.0608 H   0  0  0  0  0  0
   -4.1638   -2.5300    6.2832 C   0  0  0  0  0  0
   -4.6409   -3.1859    7.2061 O   0  0  0  0  0  0
   -4.2408   -1.1918    6.1332 N   0  0  0  0  0  0
   -4.6995   -0.5419    6.7551 H   0  0  0  0  0  0
    1.4925   -0.8884   -0.6665 N   0  0  0  0  0  0
    1.9554    0.2228   -0.9888 N   0  0  0  0  0  0
    3.3631    0.3509   -1.1057 C   0  0  0  0  0  0
    4.2545   -0.7057   -0.7877 C   0  0  0  0  0  0
    5.6433   -0.5297   -0.9201 C   0  0  0  0  0  0
    6.1544    0.6997   -1.3692 C   0  0  0  0  0  0
    5.2783    1.7541   -1.6861 C   0  0  0  0  0  0
    3.8749    1.5920   -1.5578 C   0  0  0  0  0  0
    2.9653    2.5884   -1.8540 O   0  0  0  0  0  0
    3.4577    3.8382   -2.3144 C   0  0  0  0  0  0
   -2.3586   -0.9231   -1.9044 H   0  0  0  0  0  0
   -2.5540   -2.5274   -1.1820 H   0  0  0  0  0  0
   -2.1778   -2.3702   -2.9036 H   0  0  0  0  0  0
   -1.6809    0.2692    0.8053 H   0  0  0  0  0  0
   -2.5168    1.4346    2.6686 H   0  0  0  0  0  0
   -3.7907    1.3452    4.8211 H   0  0  0  0  0  0
   -2.0192   -2.8925    2.7654 H   0  0  0  0  0  0
    3.8910   -1.6613   -0.4388 H   0  0  0  0  0  0
    6.3162   -1.3388   -0.6767 H   0  0  0  0  0  0
    7.2211    0.8353   -1.4713 H   0  0  0  0  0  0
    5.7114    2.6816   -2.0280 H   0  0  0  0  0  0
    2.6181    4.5075   -2.5009 H   0  0  0  0  0  0
    4.0071    3.7301   -3.2505 H   0  0  0  0  0  0
    4.0984    4.3135   -1.5704 H   0  0  0  0  0  0
   -0.4099    0.0120   -0.8281 H   0  0  0  0  0  0
  1  2  1  0  0  0
  1 30  1  0  0  0
  1 31  1  0  0  0
  1 32  1  0  0  0
  2  3  2  0  0  0
  2  4  1  0  0  0
  4  5  1  0  0  0
  4 20  1  0  0  0
  4 44  1  0  0  0
  5  6  2  0  0  0
  5  7  1  0  0  0
  7  8  1  0  0  0
  7 33  1  0  0  0
  8 13  2  0  0  0
  8  9  1  0  0  0
  9 10  2  0  0  0
  9 34  1  0  0  0
 10 11  1  0  0  0
 10 35  1  0  0  0
 11 18  1  0  0  0
 11 12  2  0  0  0
 12 13  1  0  0  0
 12 14  1  0  0  0
 13 36  1  0  0  0
 14 15  1  0  0  0
 14 16  1  0  0  0
 16 17  2  0  0  0
 16 18  1  0  0  0
 18 19  1  0  0  0
 20 21  2  0  0  0
 21 22  1  0  0  0
 22 27  2  0  0  0
 22 23  1  0  0  0
 23 24  2  0  0  0
 23 37  1  0  0  0
 24 25  1  0  0  0
 24 38  1  0  0  0
 25 26  2  0  0  0
 25 39  1  0  0  0
 26 27  1  0  0  0
 26 40  1  0  0  0
 27 28  1  0  0  0
 28 29  1  0  0  0
 29 41  1  0  0  0
 29 42  1  0  0  0
 29 43  1  0  0  0
M  END
> <s_m_entry_id>
31

> <s_m_entry_name>
biosynth_p1.0.sdf.24

> <s_m_Source_Path>
/Users/Sebastito/Downloads

> <s_m_Source_File>
biosynth_p1.0.sdf.gz

> <i_m_Source_File_Index>
24

> <chiral flag>
0

> <version>
0

> <i_m_ct_enhanced_stereo_status>
0

> <s_m_source_file>
ligprep_vs.maegz

> <i_m_source_file_index>
24

> <i_lp_mmshare_version>
37011

> <r_epik_Ionization_Penalty>
0.623045

> <r_epik_Ionization_Penalty_Charging>
1.61637e-05

> <r_epik_Ionization_Penalty_Neutral>
0.623029

> <r_epik_State_Penalty>
2.33717

> <r_epik_Charging_Adjusted_Penalty>
2.33718

> <i_epik_Tot_Q>
0

> <i_epik_Tot_abs_Q>
0

> <i_f3d_flags>
0

> <s_lp_Force_Field>
OPLS_2005

> <r_lp_Energy>
48.1002

> <b_lp_Chiralities_Consistent>
1

> <s_lp_Variant>
ZINC98231021-3

$$$$
ZINC98231021
                    3D
 Structure written by MMmdl.
 44 46  0  0  1  0            999 V2000
   -1.9307    0.4011    1.0273 C   0  0  0  0  0  0
   -0.5033   -0.0954    0.8096 C   0  0  0  0  0  0
    0.0443   -0.7511    1.6965 O   0  0  0  0  0  0
    0.1694    0.2725   -0.5294 C   0  0  2  0  0  0
   -0.4698   -0.5836   -1.6328 C   0  0  0  0  0  0
   -0.1527   -1.7684   -1.7462 O   0  0  0  0  0  0
   -1.3695    0.0414   -2.4169 N   0  0  0  0  0  0
   -2.1081   -0.4839   -3.5111 C   0  0  0  0  0  0
   -1.6412   -1.5647   -4.3197 C   0  0  0  0  0  0
   -2.4009   -2.0411   -5.4147 C   0  0  0  0  0  0
   -3.6199   -1.3981   -5.6724 C   0  0  0  0  0  0
   -4.0690   -0.3457   -4.9063 C   0  0  0  0  0  0
   -3.3396    0.1491   -3.8147 C   0  0  0  0  0  0
   -5.2954    0.0482   -5.4493 N   0  0  0  0  0  0
   -5.8545    0.8057   -5.0846 H   0  0  0  0  0  0
   -5.5925   -0.7310   -6.5094 C   0  0  0  0  0  0
   -6.5978   -0.6500   -7.2108 O   0  0  0  0  0  0
   -4.5852   -1.6150   -6.6593 N   0  0  0  0  0  0
   -4.5139   -2.3318   -7.3667 H   0  0  0  0  0  0
    1.6272    0.0997   -0.3972 N   0  0  0  0  0  0
    2.3089    1.1262   -0.5828 N   0  0  0  0  0  0
    3.7188    1.0194   -0.4685 C   0  0  0  0  0  0
    4.3653   -0.1906   -0.1076 C   0  0  0  0  0  0
    5.7668   -0.2466   -0.0065 C   0  0  0  0  0  0
    6.5344    0.9019   -0.2632 C   0  0  0  0  0  0
    5.9025    2.1067   -0.6215 C   0  0  0  0  0  0
    4.4897    2.1791   -0.7282 C   0  0  0  0  0  0
    3.8129    3.3317   -1.0762 O   0  0  0  0  0  0
    4.5688    4.5012   -1.3556 C   0  0  0  0  0  0
   -2.0111    1.4559    0.7645 H   0  0  0  0  0  0
   -2.2219    0.2837    2.0714 H   0  0  0  0  0  0
   -2.6282   -0.1649    0.4097 H   0  0  0  0  0  0
   -1.6008    0.9885   -2.1543 H   0  0  0  0  0  0
   -0.6894   -2.0342   -4.1252 H   0  0  0  0  0  0
   -2.0525   -2.8587   -6.0284 H   0  0  0  0  0  0
   -3.7089    0.9781   -3.2287 H   0  0  0  0  0  0
    3.8017   -1.0893    0.0970 H   0  0  0  0  0  0
    6.2521   -1.1712    0.2691 H   0  0  0  0  0  0
    7.6108    0.8595   -0.1853 H   0  0  0  0  0  0
    6.5289    2.9652   -0.8099 H   0  0  0  0  0  0
    3.8908    5.3128   -1.6191 H   0  0  0  0  0  0
    5.2428    4.3483   -2.1996 H   0  0  0  0  0  0
    5.1439    4.8221   -0.4859 H   0  0  0  0  0  0
   -0.0603    1.3198   -0.7431 H   0  0  0  0  0  0
  1  2  1  0  0  0
  1 30  1  0  0  0
  1 31  1  0  0  0
  1 32  1  0  0  0
  2  3  2  0  0  0
  2  4  1  0  0  0
  4  5  1  0  0  0
  4 20  1  0  0  0
  4 44  1  0  0  0
  5  6  2  0  0  0
  5  7  1  0  0  0
  7  8  1  0  0  0
  7 33  1  0  0  0
  8 13  2  0  0  0
  8  9  1  0  0  0
  9 10  2  0  0  0
  9 34  1  0  0  0
 10 11  1  0  0  0
 10 35  1  0  0  0
 11 18  1  0  0  0
 11 12  2  0  0  0
 12 13  1  0  0  0
 12 14  1  0  0  0
 13 36  1  0  0  0
 14 15  1  0  0  0
 14 16  1  0  0  0
 16 17  2  0  0  0
 16 18  1  0  0  0
 18 19  1  0  0  0
 20 21  2  0  0  0
 21 22  1  0  0  0
 22 27  2  0  0  0
 22 23  1  0  0  0
 23 24  2  0  0  0
 23 37  1  0  0  0
 24 25  1  0  0  0
 24 38  1  0  0  0
 25 26  2  0  0  0
 25 39  1  0  0  0
 26 27  1  0  0  0
 26 40  1  0  0  0
 27 28  1  0  0  0
 28 29  1  0  0  0
 29 41  1  0  0  0
 29 42  1  0  0  0
 29 43  1  0  0  0
M  END
> <s_m_entry_id>
31

> <s_m_entry_name>
biosynth_p1.0.sdf.24

> <s_m_Source_Path>
/Users/Sebastito/Downloads

> <s_m_Source_File>
biosynth_p1.0.sdf.gz

> <i_m_Source_File_Index>
24

> <chiral flag>
0

> <version>
0

> <i_m_ct_enhanced_stereo_status>
0

> <s_m_source_file>
ligprep_vs.maegz

> <i_m_source_file_index>
24

> <i_lp_mmshare_version>
37011

> <r_epik_Ionization_Penalty>
0.623045

> <r_epik_Ionization_Penalty_Charging>
1.61637e-05

> <r_epik_Ionization_Penalty_Neutral>
0.623029

> <r_epik_State_Penalty>
2.33717

> <r_epik_Charging_Adjusted_Penalty>
2.33718

> <i_epik_Tot_Q>
0

> <i_epik_Tot_abs_Q>
0

> <i_f3d_flags>
0

> <s_lp_Force_Field>
OPLS_2005

> <r_lp_Energy>
48.3403

> <b_lp_Chiralities_Consistent>
1

> <s_lp_Variant>
ZINC98231021-4

$$$$
ZINC80902125
                    3D
 Structure written by MMmdl.
 68 71  0  0  1  0            999 V2000
   -0.3263   -2.5091   -0.6348 C   0  0  0  0  0  0
   -0.6902   -1.2045    0.0924 C   0  0  0  0  0  0
    0.0429   -0.0406   -0.4067 N   0  0  0  0  0  0
   -0.5717    1.2718   -0.2123 C   0  0  0  0  0  0
   -0.5569    1.7291    1.2546 C   0  0  0  0  0  0
    1.4520   -0.0348   -0.3265 C   0  0  0  0  0  0
    2.1524   -0.7336    0.6844 C   0  0  0  0  0  0
    3.5571   -0.6905    0.7412 C   0  0  0  0  0  0
    4.2918    0.0526   -0.2061 C   0  0  0  0  0  0
    3.6030    0.7543   -1.2215 C   0  0  0  0  0  0
    2.1957    0.7066   -1.2714 C   0  0  0  0  0  0
    4.2530    1.5003   -2.1741 O   0  0  0  0  0  0
    5.6246    1.4989   -2.2491 C   0  0  0  0  0  0
    6.2230    2.1797   -3.3283 C   0  0  0  0  0  0
    7.6301    2.2322   -3.4742 C   0  0  0  0  0  0
    8.4287    1.5832   -2.5068 C   0  0  0  0  0  0
    7.8394    0.9005   -1.4277 C   0  0  0  0  0  0
    6.4369    0.8503   -1.2912 C   0  0  0  0  0  0
    5.8120    0.0993   -0.1224 C   0  0  1  0  0  0
    6.2756    0.6675    1.2224 C   0  0  0  0  0  0
    5.9142    2.0014    1.5234 C   0  0  0  0  0  0
    6.2853    2.5967    2.7410 C   0  0  0  0  0  0
    7.0299    1.8597    3.6775 C   0  0  0  0  0  0
    7.4075    0.5307    3.3994 C   0  0  0  0  0  0
    7.0346   -0.0736    2.1755 C   0  0  0  0  0  0
    7.5454   -1.7865    1.8869 S   0  0  0  0  0  0
    6.2729   -2.5074    1.7285 O   0  0  0  0  0  0
    8.3650   -1.7073    0.6679 O   0  0  0  0  0  0
    8.3015   -2.1660    3.0903 O   0  5  0  0  0  0
    7.4790    2.6502    5.2231 S   0  0  0  0  0  0
    8.2850    3.8013    4.7867 O   0  0  0  0  0  0
    6.1758    3.0022    5.8085 O   0  0  0  0  0  0
    8.2274    1.6249    5.9670 O   0  5  0  0  0  0
    8.2516    2.8950   -4.5555 N   0  0  0  0  0  0
    9.0792    2.0319   -5.3976 C   0  0  0  0  0  0
    8.2507    1.1138   -6.3087 C   0  0  0  0  0  0
    7.5516    3.9977   -5.2159 C   0  0  0  0  0  0
    7.2545    5.1784   -4.2778 C   0  0  0  0  0  0
   -0.9309   -3.3358   -0.2618 H   0  0  0  0  0  0
    0.7192   -2.7831   -0.4960 H   0  0  0  0  0  0
   -0.5097   -2.4236   -1.7063 H   0  0  0  0  0  0
   -1.7573   -1.0223   -0.0395 H   0  0  0  0  0  0
   -0.5370   -1.3115    1.1661 H   0  0  0  0  0  0
   -0.0794    2.0193   -0.8340 H   0  0  0  0  0  0
   -1.6023    1.2272   -0.5660 H   0  0  0  0  0  0
   -1.0296    2.7058    1.3572 H   0  0  0  0  0  0
    0.4611    1.8156    1.6359 H   0  0  0  0  0  0
   -1.0975    1.0327    1.8958 H   0  0  0  0  0  0
    1.6279   -1.3016    1.4375 H   0  0  0  0  0  0
    4.0682   -1.2244    1.5277 H   0  0  0  0  0  0
    1.6844    1.2446   -2.0564 H   0  0  0  0  0  0
    5.5743    2.6540   -4.0488 H   0  0  0  0  0  0
    9.5061    1.6116   -2.5782 H   0  0  0  0  0  0
    8.4749    0.4198   -0.7000 H   0  0  0  0  0  0
    6.1325   -0.9309   -0.2450 H   0  0  0  0  0  0
    5.3394    2.5775    0.8129 H   0  0  0  0  0  0
    5.9974    3.6149    2.9568 H   0  0  0  0  0  0
    7.9798   -0.0190    4.1297 H   0  0  0  0  0  0
    9.7231    2.6624   -6.0116 H   0  0  0  0  0  0
    9.7541    1.4311   -4.7886 H   0  0  0  0  0  0
    8.9031    0.4939   -6.9236 H   0  0  0  0  0  0
    7.6127    1.6884   -6.9804 H   0  0  0  0  0  0
    7.6135    0.4460   -5.7283 H   0  0  0  0  0  0
    8.1728    4.3578   -6.0366 H   0  0  0  0  0  0
    6.6325    3.6366   -5.6774 H   0  0  0  0  0  0
    6.7892    5.9958   -4.8287 H   0  0  0  0  0  0
    8.1717    5.5624   -3.8306 H   0  0  0  0  0  0
    6.5778    4.9054   -3.4688 H   0  0  0  0  0  0
  1  2  1  0  0  0
  1 39  1  0  0  0
  1 40  1  0  0  0
  1 41  1  0  0  0
  2  3  1  0  0  0
  2 42  1  0  0  0
  2 43  1  0  0  0
  3  4  1  0  0  0
  3  6  1  0  0  0
  4  5  1  0  0  0
  4 44  1  0  0  0
  4 45  1  0  0  0
  5 46  1  0  0  0
  5 47  1  0  0  0
  5 48  1  0  0  0
  6 11  2  0  0  0
  6  7  1  0  0  0
  7  8  2  0  0  0
  7 49  1  0  0  0
  8  9  1  0  0  0
  8 50  1  0  0  0
  9 19  1  0  0  0
  9 10  2  0  0  0
 10 11  1  0  0  0
 10 12  1  0  0  0
 11 51  1  0  0  0
 12 13  1  0  0  0
 13 18  2  0  0  0
 13 14  1  0  0  0
 14 15  2  0  0  0
 14 52  1  0  0  0
 15 16  1  0  0  0
 15 34  1  0  0  0
 16 17  2  0  0  0
 16 53  1  0  0  0
 17 18  1  0  0  0
 17 54  1  0  0  0
 18 19  1  0  0  0
 19 20  1  0  0  0
 19 55  1  0  0  0
 20 25  2  0  0  0
 20 21  1  0  0  0
 21 22  2  0  0  0
 21 56  1  0  0  0
 22 23  1  0  0  0
 22 57  1  0  0  0
 23 24  2  0  0  0
 23 30  1  0  0  0
 24 25  1  0  0  0
 24 58  1  0  0  0
 25 26  1  0  0  0
 26 27  2  0  0  0
 26 28  2  0  0  0
 26 29  1  0  0  0
 30 31  2  0  0  0
 30 32  2  0  0  0
 30 33  1  0  0  0
 34 35  1  0  0  0
 34 37  1  0  0  0
 35 36  1  0  0  0
 35 59  1  0  0  0
 35 60  1  0  0  0
 36 61  1  0  0  0
 36 62  1  0  0  0
 36 63  1  0  0  0
 37 38  1  0  0  0
 37 64  1  0  0  0
 37 65  1  0  0  0
 38 66  1  0  0  0
 38 67  1  0  0  0
 38 68  1  0  0  0
M  CHG  2  29  -1  33  -1
M  END
> <s_m_entry_id>
32

> <s_m_entry_name>
biosynth_p1.0.sdf.25

> <s_m_Source_Path>
/Users/Sebastito/Downloads

> <s_m_Source_File>
biosynth_p1.0.sdf.gz

> <i_m_Source_File_Index>
25

> <chiral flag>
1

> <version>
0

> <i_m_ct_enhanced_stereo_status>
0

> <s_m_source_file>
ligprep_vs.maegz

> <i_m_source_file_index>
25

> <i_lp_mmshare_version>
37011

> <r_lp_tautomer_probability>
1

> <r_epik_Ionization_Penalty>
0.0336369

> <r_epik_Ionization_Penalty_Charging>
7.41778e-06

> <r_epik_Ionization_Penalty_Neutral>
0.0336295

> <r_epik_State_Penalty>
0.0282304

> <r_epik_Charging_Adjusted_Penalty>
0.0282378

> <i_epik_Tot_Q>
-2

> <i_epik_Tot_abs_Q>
2

> <i_f3d_flags>
0

> <s_lp_Force_Field>
OPLS_2005

> <r_lp_Energy>
47.0301

> <b_lp_Chiralities_Consistent>
1

> <s_lp_Variant>
ZINC80902125-1

$$$$
ZINC80902125
                    3D
 Structure written by MMmdl.
 69 72  0  0  1  0            999 V2000
   -0.5330   -0.0331    1.9738 C   0  0  0  0  0  0
   -0.6848   -0.8530    0.6843 C   0  0  0  0  0  0
    0.0193   -0.2314   -0.4654 N   0  3  0  0  0  0
   -0.3859   -0.8330   -1.7612 C   0  0  0  0  0  0
    0.1107   -0.0202   -2.9661 C   0  0  0  0  0  0
    1.5197   -0.1449   -0.2773 C   0  0  0  0  0  0
    2.3029   -1.3143   -0.2320 C   0  0  0  0  0  0
    3.6944   -1.2002   -0.0606 C   0  0  0  0  0  0
    4.3027    0.0693    0.0666 C   0  0  0  0  0  0
    3.5034    1.2384    0.0281 C   0  0  0  0  0  0
    2.1094    1.1258   -0.1466 C   0  0  0  0  0  0
    4.0317    2.4993    0.1623 O   0  0  0  0  0  0
    5.3917    2.6875    0.2073 C   0  0  0  0  0  0
    5.8731    4.0120    0.2301 C   0  0  0  0  0  0
    7.2574    4.2912    0.2859 C   0  0  0  0  0  0
    8.1617    3.2037    0.3084 C   0  0  0  0  0  0
    7.6894    1.8794    0.2884 C   0  0  0  0  0  0
    6.3061    1.6105    0.2419 C   0  0  0  0  0  0
    5.8132    0.1697    0.2373 C   0  0  1  0  0  0
    6.2911   -0.5825    1.4831 C   0  0  0  0  0  0
    5.8401   -0.1151    2.7398 C   0  0  0  0  0  0
    6.2425   -0.7374    3.9343 C   0  0  0  0  0  0
    7.1038   -1.8477    3.8825 C   0  0  0  0  0  0
    7.5689   -2.3300    2.6439 C   0  0  0  0  0  0
    7.1674   -1.7066    1.4397 C   0  0  0  0  0  0
    7.8032   -2.3808   -0.1153 S   0  0  0  0  0  0
    6.5880   -2.7678   -0.8487 O   0  0  0  0  0  0
    8.5475   -1.2573   -0.7047 O   0  0  0  0  0  0
    8.6501   -3.5168    0.2806 O   0  5  0  0  0  0
    7.6373   -2.6339    5.4031 S   0  0  0  0  0  0
    8.8971   -1.9391    5.7104 O   0  0  0  0  0  0
    6.5417   -2.3644    6.3482 O   0  0  0  0  0  0
    7.7891   -4.0507    5.0363 O   0  5  0  0  0  0
    7.6955    5.6334    0.3074 N   0  0  0  0  0  0
    8.9795    5.9528    0.9332 C   0  0  0  0  0  0
    9.0357    5.5880    2.4255 C   0  0  0  0  0  0
    7.3119    6.4137   -0.8679 C   0  0  0  0  0  0
    8.1401    6.0650   -2.1136 C   0  0  0  0  0  0
   -1.1104   -0.4798    2.7833 H   0  0  0  0  0  0
   -0.8904    0.9879    1.8364 H   0  0  0  0  0  0
    0.5053    0.0149    2.3030 H   0  0  0  0  0  0
   -0.3237   -1.8707    0.8385 H   0  0  0  0  0  0
   -1.7482   -0.9325    0.4553 H   0  0  0  0  0  0
   -0.0279   -1.8613   -1.8259 H   0  0  0  0  0  0
   -1.4744   -0.8812   -1.8089 H   0  0  0  0  0  0
   -0.2569   -0.4508   -3.8977 H   0  0  0  0  0  0
    1.1995   -0.0049   -3.0228 H   0  0  0  0  0  0
   -0.2388    1.0115   -2.9179 H   0  0  0  0  0  0
    1.8510   -2.2905   -0.3273 H   0  0  0  0  0  0
    4.2939   -2.0967   -0.0226 H   0  0  0  0  0  0
    1.4975    2.0155   -0.1785 H   0  0  0  0  0  0
    5.1599    4.8233    0.2186 H   0  0  0  0  0  0
    9.2285    3.3633    0.3390 H   0  0  0  0  0  0
    8.4005    1.0682    0.3180 H   0  0  0  0  0  0
    6.2270   -0.2655   -0.6674 H   0  0  0  0  0  0
    5.1808    0.7390    2.7917 H   0  0  0  0  0  0
    5.8932   -0.3559    4.8822 H   0  0  0  0  0  0
    8.2384   -3.1762    2.6336 H   0  0  0  0  0  0
    9.7917    5.4679    0.3916 H   0  0  0  0  0  0
    9.1551    7.0244    0.8333 H   0  0  0  0  0  0
    9.9893    5.8920    2.8570 H   0  0  0  0  0  0
    8.9300    4.5170    2.5960 H   0  0  0  0  0  0
    8.2459    6.0937    2.9814 H   0  0  0  0  0  0
    6.2520    6.2840   -1.0855 H   0  0  0  0  0  0
    7.4364    7.4718   -0.6359 H   0  0  0  0  0  0
    7.8271    6.6715   -2.9633 H   0  0  0  0  0  0
    8.0178    5.0184   -2.3934 H   0  0  0  0  0  0
    9.2026    6.2480   -1.9522 H   0  0  0  0  0  0
   -0.3445    0.7102   -0.5029 H   0  0  0  0  0  0
  1  2  1  0  0  0
  1 39  1  0  0  0
  1 40  1  0  0  0
  1 41  1  0  0  0
  2  3  1  0  0  0
  2 42  1  0  0  0
  2 43  1  0  0  0
  3  4  1  0  0  0
  3  6  1  0  0  0
  3 69  1  0  0  0
  4  5  1  0  0  0
  4 44  1  0  0  0
  4 45  1  0  0  0
  5 46  1  0  0  0
  5 47  1  0  0  0
  5 48  1  0  0  0
  6 11  2  0  0  0
  6  7  1  0  0  0
  7  8  2  0  0  0
  7 49  1  0  0  0
  8  9  1  0  0  0
  8 50  1  0  0  0
  9 19  1  0  0  0
  9 10  2  0  0  0
 10 11  1  0  0  0
 10 12  1  0  0  0
 11 51  1  0  0  0
 12 13  1  0  0  0
 13 18  2  0  0  0
 13 14  1  0  0  0
 14 15  2  0  0  0
 14 52  1  0  0  0
 15 16  1  0  0  0
 15 34  1  0  0  0
 16 17  2  0  0  0
 16 53  1  0  0  0
 17 18  1  0  0  0
 17 54  1  0  0  0
 18 19  1  0  0  0
 19 20  1  0  0  0
 19 55  1  0  0  0
 20 25  2  0  0  0
 20 21  1  0  0  0
 21 22  2  0  0  0
 21 56  1  0  0  0
 22 23  1  0  0  0
 22 57  1  0  0  0
 23 24  2  0  0  0
 23 30  1  0  0  0
 24 25  1  0  0  0
 24 58  1  0  0  0
 25 26  1  0  0  0
 26 27  2  0  0  0
 26 28  2  0  0  0
 26 29  1  0  0  0
 30 31  2  0  0  0
 30 32  2  0  0  0
 30 33  1  0  0  0
 34 35  1  0  0  0
 34 37  1  0  0  0
 35 36  1  0  0  0
 35 59  1  0  0  0
 35 60  1  0  0  0
 36 61  1  0  0  0
 36 62  1  0  0  0
 36 63  1  0  0  0
 37 38  1  0  0  0
 37 64  1  0  0  0
 37 65  1  0  0  0
 38 66  1  0  0  0
 38 67  1  0  0  0
 38 68  1  0  0  0
M  CHG  3   3   1  29  -1  33  -1
M  END
> <s_m_entry_id>
32

> <s_m_entry_name>
biosynth_p1.0.sdf.25

> <s_m_Source_Path>
/Users/Sebastito/Downloads

> <s_m_Source_File>
biosynth_p1.0.sdf.gz

> <i_m_Source_File_Index>
25

> <chiral flag>
1

> <version>
0

> <i_m_ct_enhanced_stereo_status>
0

> <s_m_source_file>
ligprep_vs.maegz

> <i_m_source_file_index>
25

> <i_lp_mmshare_version>
37011

> <r_lp_tautomer_probability>
1

> <r_epik_Ionization_Penalty>
1.72513

> <r_epik_Ionization_Penalty_Charging>
1.71654

> <r_epik_Ionization_Penalty_Neutral>
0.00858801

> <r_epik_State_Penalty>
1.82402

> <r_epik_Charging_Adjusted_Penalty>
3.54056

> <i_epik_Tot_Q>
-1

> <i_epik_Tot_abs_Q>
3

> <i_f3d_flags>
0

> <s_lp_Force_Field>
OPLS_2005

> <r_lp_Energy>
45.6827

> <b_lp_Chiralities_Consistent>
1

> <s_lp_Variant>
ZINC80902125-2

$$$$
ZINC98231032
                    3D
 Structure written by MMmdl.
 56 60  0  0  1  0            999 V2000
   -4.3153   -0.0946    0.2875 C   0  0  0  0  0  0
   -2.8022   -0.0715    0.2165 C   0  0  0  0  0  0
   -2.0733   -1.2746    0.1099 C   0  0  0  0  0  0
   -0.6669   -1.2466    0.0436 C   0  0  0  0  0  0
    0.0181   -0.0125    0.0837 C   0  0  0  0  0  0
   -0.7114    1.1920    0.1899 C   0  0  0  0  0  0
   -2.1177    1.1606    0.2557 C   0  0  0  0  0  0
    1.4431    0.0177    0.0172 N   0  0  0  0  0  0
    2.0348    0.0506   -1.2161 C   0  0  0  0  0  0
    1.3282    0.0864   -2.2287 O   0  0  0  0  0  0
    3.5230    0.0016   -1.2609 C   0  0  0  0  0  0
    4.1942   -0.2881   -2.4221 C   0  0  0  0  0  0
    5.6251   -0.5419   -2.7240 C   0  0  0  0  0  0
    6.7250   -0.8418   -1.8874 C   0  0  0  0  0  0
    7.9979   -1.0457   -2.4573 C   0  0  0  0  0  0
    8.1706   -0.9878   -3.8545 C   0  0  0  0  0  0
    7.0637   -0.7618   -4.6952 C   0  0  0  0  0  0
    5.7925   -0.5594   -4.1165 C   0  0  0  0  0  0
    4.4761   -0.4136   -4.7482 C   0  0  0  0  0  0
    4.1501   -0.3203   -6.0657 C   0  0  0  0  0  0
    5.1498   -0.3293   -7.0914 C   0  0  0  0  0  0
    5.9168   -0.3272   -7.9597 N   0  0  0  0  0  0
    2.7542   -0.1873   -6.5209 C   0  0  0  0  0  0
    1.7662   -0.2166   -5.7854 O   0  0  0  0  0  0
    2.6510   -0.0541   -7.8604 N   0  0  0  0  0  0
    1.4841    0.1195   -8.6530 C   0  0  0  0  0  0
    1.5488   -0.3018   -9.9979 C   0  0  0  0  0  0
    0.4407   -0.1397  -10.8518 C   0  0  0  0  0  0
   -0.7393    0.4566  -10.3684 C   0  0  0  0  0  0
   -0.8074    0.8955   -9.0324 C   0  0  0  0  0  0
    0.3002    0.7345   -8.1774 C   0  0  0  0  0  0
   -2.0966    0.6583  -11.4143 Cl  0  0  0  0  0  0
    3.6014   -0.4045   -3.6733 N   0  0  0  0  0  0
    2.6099   -0.2517   -3.8019 H   0  0  0  0  0  0
    4.1953    0.3301    0.0130 C   0  0  0  0  0  0
    5.3511    0.7278    0.1267 O   0  0  0  0  0  0
    3.4512    0.2237    1.1271 N   0  0  0  0  0  0
    2.1218    0.0416    1.1973 C   0  0  0  0  0  0
    1.5738   -0.0655    2.2957 O   0  0  0  0  0  0
   -4.6971   -1.1155    0.3183 H   0  0  0  0  0  0
   -4.7413    0.4027   -0.5843 H   0  0  0  0  0  0
   -4.6608    0.4242    1.1822 H   0  0  0  0  0  0
   -2.5890   -2.2231    0.0785 H   0  0  0  0  0  0
   -0.1150   -2.1717   -0.0378 H   0  0  0  0  0  0
   -0.1939    2.1398    0.2205 H   0  0  0  0  0  0
   -2.6705    2.0852    0.3365 H   0  0  0  0  0  0
    6.6275   -0.9623   -0.8226 H   0  0  0  0  0  0
    8.8427   -1.2636   -1.8206 H   0  0  0  0  0  0
    9.1479   -1.1521   -4.2840 H   0  0  0  0  0  0
    7.2160   -0.7763   -5.7603 H   0  0  0  0  0  0
    2.4508   -0.7575  -10.3803 H   0  0  0  0  0  0
    0.4987   -0.4709  -11.8784 H   0  0  0  0  0  0
   -1.7078    1.3635   -8.6624 H   0  0  0  0  0  0
    0.2244    1.1040   -7.1662 H   0  0  0  0  0  0
    3.9336    0.3491    2.0053 H   0  0  0  0  0  0
    3.5121   -0.1482   -8.3799 H   0  0  0  0  0  0
  1  2  1  0  0  0
  1 40  1  0  0  0
  1 41  1  0  0  0
  1 42  1  0  0  0
  2  7  2  0  0  0
  2  3  1  0  0  0
  3  4  2  0  0  0
  3 43  1  0  0  0
  4  5  1  0  0  0
  4 44  1  0  0  0
  5  6  2  0  0  0
  5  8  1  0  0  0
  6  7  1  0  0  0
  6 45  1  0  0  0
  7 46  1  0  0  0
  8 38  1  0  0  0
  8  9  1  0  0  0
  9 10  2  0  0  0
  9 11  1  0  0  0
 11 12  2  0  0  0
 11 35  1  0  0  0
 12 33  1  0  0  0
 12 13  1  0  0  0
 13 18  2  0  0  0
 13 14  1  0  0  0
 14 15  2  0  0  0
 14 47  1  0  0  0
 15 16  1  0  0  0
 15 48  1  0  0  0
 16 17  2  0  0  0
 16 49  1  0  0  0
 17 18  1  0  0  0
 17 50  1  0  0  0
 18 19  1  0  0  0
 19 20  2  0  0  0
 19 33  1  0  0  0
 20 21  1  0  0  0
 20 23  1  0  0  0
 21 22  3  0  0  0
 23 24  2  0  0  0
 23 25  1  0  0  0
 25 26  1  0  0  0
 25 56  1  0  0  0
 26 31  2  0  0  0
 26 27  1  0  0  0
 27 28  2  0  0  0
 27 51  1  0  0  0
 28 29  1  0  0  0
 28 52  1  0  0  0
 29 30  2  0  0  0
 29 32  1  0  0  0
 30 31  1  0  0  0
 30 53  1  0  0  0
 31 54  1  0  0  0
 33 34  1  0  0  0
 35 36  2  0  0  0
 35 37  1  0  0  0
 37 38  1  0  0  0
 37 55  1  0  0  0
 38 39  2  0  0  0
M  END
> <s_m_entry_id>
33

> <s_m_entry_name>
biosynth_p1.0.sdf.26

> <s_m_Source_Path>
/Users/Sebastito/Downloads

> <s_m_Source_File>
biosynth_p1.0.sdf.gz

> <i_m_Source_File_Index>
26

> <chiral flag>
0

> <version>
0

> <i_m_ct_enhanced_stereo_status>
0

> <s_m_source_file>
ligprep_vs.maegz

> <i_m_source_file_index>
26

> <i_lp_mmshare_version>
37011

> <r_epik_Ionization_Penalty>
0.0136675

> <r_epik_Ionization_Penalty_Charging>
0.0134664

> <r_epik_Ionization_Penalty_Neutral>
0.000201102

> <r_epik_State_Penalty>
0.0104819

> <r_epik_Charging_Adjusted_Penalty>
0.0239483

> <i_epik_Tot_Q>
0

> <i_epik_Tot_abs_Q>
0

> <s_epik_Chemistry_Notes>
This compound has an imine and may undergo hydrolysis.

> <i_f3d_flags>
0

> <s_lp_Force_Field>
OPLS_2005

> <r_lp_Energy>
84.4034

> <b_lp_Chiralities_Consistent>
1

> <s_lp_Variant>
ZINC98231032-1

$$$$
ZINC98231032
                    3D
 Structure written by MMmdl.
 55 59  0  0  1  0            999 V2000
   -5.2099    5.9260    0.8896 C   0  0  0  0  0  0
   -4.3732    4.7047    0.5706 C   0  0  0  0  0  0
   -3.3759    4.7623   -0.4247 C   0  0  0  0  0  0
   -2.6027    3.6227   -0.7178 C   0  0  0  0  0  0
   -2.8208    2.4150   -0.0179 C   0  0  0  0  0  0
   -3.8183    2.3617    0.9814 C   0  0  0  0  0  0
   -4.5905    3.5024    1.2737 C   0  0  0  0  0  0
   -2.0381    1.2580   -0.3215 N   0  0  0  0  0  0
   -0.6426    1.2862   -0.1950 C   0  0  0  0  0  0
   -0.1476    2.3046    0.5748 O   0  5  0  0  0  0
    0.1943    0.2862   -0.6409 C   0  0  0  0  0  0
    1.6926    0.2846   -0.4378 C   0  0  0  0  0  0
    2.6193    1.4411   -0.4358 C   0  0  0  0  0  0
    2.4427    2.8067   -0.7462 C   0  0  0  0  0  0
    3.5560    3.6705   -0.6761 C   0  0  0  0  0  0
    4.8303    3.1676   -0.3328 C   0  0  0  0  0  0
    5.0103    1.7911   -0.0832 C   0  0  0  0  0  0
    3.8866    0.9419   -0.1568 C   0  0  0  0  0  0
    3.7289   -0.5087   -0.0461 C   0  0  0  0  0  0
    4.6781   -1.4542    0.1974 C   0  0  0  0  0  0
    6.0492   -1.0942    0.4006 C   0  0  0  0  0  0
    7.1710   -0.8578    0.5693 N   0  0  0  0  0  0
    4.3746   -2.8946    0.2841 C   0  0  0  0  0  0
    3.2454   -3.3801    0.3648 O   0  0  0  0  0  0
    5.4853   -3.6615    0.2510 N   0  0  0  0  0  0
    5.5898   -5.0765    0.3221 C   0  0  0  0  0  0
    6.7014   -5.6763   -0.3056 C   0  0  0  0  0  0
    6.8814   -7.0723   -0.2570 C   0  0  0  0  0  0
    5.9559   -7.8782    0.4326 C   0  0  0  0  0  0
    4.8538   -7.2858    1.0782 C   0  0  0  0  0  0
    4.6720   -5.8900    1.0299 C   0  0  0  0  0  0
    6.1771   -9.5882    0.4947 Cl  0  0  0  0  0  0
    2.3772   -0.7818   -0.2738 N   0  0  0  0  0  0
   -0.4560   -0.9497   -1.1385 C   0  0  0  0  0  0
    0.1158   -1.9693   -1.5264 O   0  0  0  0  0  0
   -1.8460   -0.9381   -1.2078 N   0  0  0  0  0  0
   -2.6648    0.1165   -0.8462 C   0  0  0  0  0  0
   -3.8841    0.0268   -0.9917 O   0  0  0  0  0  0
   -5.0303    6.7282    0.1732 H   0  0  0  0  0  0
   -4.9702    6.2970    1.8863 H   0  0  0  0  0  0
   -6.2709    5.6765    0.8606 H   0  0  0  0  0  0
   -3.1990    5.6788   -0.9680 H   0  0  0  0  0  0
   -1.8416    3.6750   -1.4826 H   0  0  0  0  0  0
   -3.9913    1.4457    1.5273 H   0  0  0  0  0  0
   -5.3504    3.4516    2.0396 H   0  0  0  0  0  0
    1.4875    3.2016   -1.0549 H   0  0  0  0  0  0
    3.4342    4.7206   -0.8969 H   0  0  0  0  0  0
    5.6767    3.8368   -0.2862 H   0  0  0  0  0  0
    5.9976    1.4243    0.1396 H   0  0  0  0  0  0
    7.4198   -5.0668   -0.8347 H   0  0  0  0  0  0
    7.7316   -7.5226   -0.7479 H   0  0  0  0  0  0
    4.1483   -7.9007    1.6176 H   0  0  0  0  0  0
    3.8310   -5.4628    1.5542 H   0  0  0  0  0  0
   -2.2959   -1.7647   -1.5723 H   0  0  0  0  0  0
    6.3531   -3.1738    0.0807 H   0  0  0  0  0  0
  1  2  1  0  0  0
  1 39  1  0  0  0
  1 40  1  0  0  0
  1 41  1  0  0  0
  2  7  2  0  0  0
  2  3  1  0  0  0
  3  4  2  0  0  0
  3 42  1  0  0  0
  4  5  1  0  0  0
  4 43  1  0  0  0
  5  6  2  0  0  0
  5  8  1  0  0  0
  6  7  1  0  0  0
  6 44  1  0  0  0
  7 45  1  0  0  0
  8 37  1  0  0  0
  8  9  1  0  0  0
  9 10  1  0  0  0
  9 11  2  0  0  0
 11 12  1  0  0  0
 11 34  1  0  0  0
 12 33  2  0  0  0
 12 13  1  0  0  0
 13 18  2  0  0  0
 13 14  1  0  0  0
 14 15  2  0  0  0
 14 46  1  0  0  0
 15 16  1  0  0  0
 15 47  1  0  0  0
 16 17  2  0  0  0
 16 48  1  0  0  0
 17 18  1  0  0  0
 17 49  1  0  0  0
 18 19  1  0  0  0
 19 20  2  0  0  0
 19 33  1  0  0  0
 20 21  1  0  0  0
 20 23  1  0  0  0
 21 22  3  0  0  0
 23 24  2  0  0  0
 23 25  1  0  0  0
 25 26  1  0  0  0
 25 55  1  0  0  0
 26 31  2  0  0  0
 26 27  1  0  0  0
 27 28  2  0  0  0
 27 50  1  0  0  0
 28 29  1  0  0  0
 28 51  1  0  0  0
 29 30  2  0  0  0
 29 32  1  0  0  0
 30 31  1  0  0  0
 30 52  1  0  0  0
 31 53  1  0  0  0
 34 35  2  0  0  0
 34 36  1  0  0  0
 36 37  1  0  0  0
 36 54  1  0  0  0
 37 38  2  0  0  0
M  CHG  1  10  -1
M  END
> <s_m_entry_id>
33

> <s_m_entry_name>
biosynth_p1.0.sdf.26

> <s_m_Source_Path>
/Users/Sebastito/Downloads

> <s_m_Source_File>
biosynth_p1.0.sdf.gz

> <i_m_Source_File_Index>
26

> <chiral flag>
0

> <version>
0

> <i_m_ct_enhanced_stereo_status>
0

> <s_m_source_file>
ligprep_vs.maegz

> <i_m_source_file_index>
26

> <i_lp_mmshare_version>
37011

> <r_epik_Ionization_Penalty>
2.24885

> <r_epik_Ionization_Penalty_Charging>
2.11308e-05

> <r_epik_Ionization_Penalty_Neutral>
2.24883

> <r_epik_State_Penalty>
2.39572

> <r_epik_Charging_Adjusted_Penalty>
2.39574

> <i_epik_Tot_Q>
-1

> <i_epik_Tot_abs_Q>
1

> <s_epik_Chemistry_Notes>
This compound has an imine and may undergo hydrolysis.

> <i_f3d_flags>
0

> <s_lp_Force_Field>
OPLS_2005

> <r_lp_Energy>
85.7234

> <b_lp_Chiralities_Consistent>
1

> <s_lp_Variant>
ZINC98231032-2

$$$$
ZINC08733367
                    3D
 Structure written by MMmdl.
 16 16  0  0  1  0            999 V2000
    0.0222   -0.0006    0.0120 C   0  0  0  0  0  0
    1.5406    0.0598    0.1497 C   0  0  0  0  0  0
    2.1542   -0.9572    0.4707 O   0  0  0  0  0  0
    2.1056    1.2561   -0.0998 N   0  0  0  0  0  0
    3.4195    1.5983   -0.0565 C   0  0  0  0  0  0
    4.5138    0.8216    0.2105 C   0  0  0  0  0  0
    5.5882    1.7538    0.1004 C   0  0  0  0  0  0
    5.1873    2.9829   -0.2059 N   0  0  0  0  0  0
    3.2620    3.6705   -0.5285 H   0  0  0  0  0  0
    3.8473    2.8789   -0.3024 N   0  0  0  0  0  0
   -0.4199    0.9965    0.0036 H   0  0  0  0  0  0
   -0.4114   -0.5559    0.8441 H   0  0  0  0  0  0
   -0.2505   -0.5051   -0.9152 H   0  0  0  0  0  0
    1.4717    2.0019   -0.3471 H   0  0  0  0  0  0
    4.5618   -0.2310    0.4451 H   0  0  0  0  0  0
    6.6449    1.5740    0.2329 H   0  0  0  0  0  0
  1  2  1  0  0  0
  1 11  1  0  0  0
  1 12  1  0  0  0
  1 13  1  0  0  0
  2  3  2  0  0  0
  2  4  1  0  0  0
  4 14  1  0  0  0
  4  5  1  0  0  0
  5  6  2  0  0  0
  5 10  1  0  0  0
  6  7  1  0  0  0
  6 15  1  0  0  0
  7  8  2  0  0  0
  7 16  1  0  0  0
  8 10  1  0  0  0
  9 10  1  0  0  0
M  END
> <s_m_entry_id>
34

> <s_m_entry_name>
biosynth_p1.0.sdf.27

> <s_m_Source_Path>
/Users/Sebastito/Downloads

> <s_m_Source_File>
biosynth_p1.0.sdf.gz

> <i_m_Source_File_Index>
27

> <chiral flag>
0

> <version>
0

> <i_m_ct_enhanced_stereo_status>
0

> <s_m_source_file>
ligprep_vs.maegz

> <i_m_source_file_index>
27

> <i_lp_mmshare_version>
37011

> <i_f3d_flags>
0

> <r_lp_tautomer_probability>
0.5

> <r_epik_Ionization_Penalty>
2.84137e-06

> <r_epik_Ionization_Penalty_Charging>
0

> <r_epik_Ionization_Penalty_Neutral>
2.84137e-06

> <r_epik_State_Penalty>
0.41068

> <r_epik_Charging_Adjusted_Penalty>
0.41068

> <i_epik_Tot_Q>
0

> <i_epik_Tot_abs_Q>
0

> <s_lp_Force_Field>
OPLS_2005

> <r_lp_Energy>
7.25372

> <b_lp_Chiralities_Consistent>
1

> <s_lp_Variant>
ZINC08733367-1

$$$$
ZINC08733367
                    3D
 Structure written by MMmdl.
 16 16  0  0  1  0            999 V2000
   -0.0304    0.0218    0.0036 C   0  0  0  0  0  0
    1.4901    0.0321   -0.1236 C   0  0  0  0  0  0
    2.0770   -1.0109   -0.4101 O   0  0  0  0  0  0
    2.0923    1.2152    0.0969 N   0  0  0  0  0  0
    3.4798    1.5066    0.0475 C   0  0  0  0  0  0
    3.9519    2.8265    0.3009 C   0  0  0  0  0  0
    5.3067    2.7113    0.1656 C   0  0  0  0  0  0
    5.5641    1.3948   -0.1459 N   0  0  0  0  0  0
    6.4807    1.0019   -0.3065 H   0  0  0  0  0  0
    4.4499    0.6421   -0.2226 N   0  0  0  0  0  0
   -0.4391    1.0330    0.0156 H   0  0  0  0  0  0
   -0.3257   -0.4784    0.9261 H   0  0  0  0  0  0
   -0.4771   -0.5138   -0.8346 H   0  0  0  0  0  0
    1.4895    1.9923    0.3244 H   0  0  0  0  0  0
    3.3884    3.7155    0.5432 H   0  0  0  0  0  0
    6.0958    3.4422    0.2629 H   0  0  0  0  0  0
  1  2  1  0  0  0
  1 11  1  0  0  0
  1 12  1  0  0  0
  1 13  1  0  0  0
  2  3  2  0  0  0
  2  4  1  0  0  0
  4 14  1  0  0  0
  4  5  1  0  0  0
  5 10  2  0  0  0
  5  6  1  0  0  0
  6  7  2  0  0  0
  6 15  1  0  0  0
  7  8  1  0  0  0
  7 16  1  0  0  0
  8 10  1  0  0  0
  8  9  1  0  0  0
M  END
> <s_m_entry_id>
34

> <s_m_entry_name>
biosynth_p1.0.sdf.27

> <s_m_Source_Path>
/Users/Sebastito/Downloads

> <s_m_Source_File>
biosynth_p1.0.sdf.gz

> <i_m_Source_File_Index>
27

> <chiral flag>
0

> <version>
0

> <i_m_ct_enhanced_stereo_status>
0

> <s_m_source_file>
ligprep_vs.maegz

> <i_m_source_file_index>
27

> <i_lp_mmshare_version>
37011

> <i_f3d_flags>
0

> <r_lp_tautomer_probability>
0.5

> <r_epik_Ionization_Penalty>
5.73593e-05

> <r_epik_Ionization_Penalty_Charging>
0

> <r_epik_Ionization_Penalty_Neutral>
5.73593e-05

> <r_epik_State_Penalty>
0.41068

> <r_epik_Charging_Adjusted_Penalty>
0.41068

> <i_epik_Tot_Q>
0

> <i_epik_Tot_abs_Q>
0

> <s_lp_Force_Field>
OPLS_2005

> <r_lp_Energy>
2.44121

> <b_lp_Chiralities_Consistent>
1

> <s_lp_Variant>
ZINC08733367-2

$$$$
ZINC98216480
                    3D
 Structure written by MMmdl.
 35 36  0  0  1  0            999 V2000
   -1.5768    3.1364    1.0857 C   0  0  0  0  0  0
   -1.3134    1.7781    0.4265 C   0  0  0  0  0  0
    0.1598    1.3553    0.5161 C   0  0  0  0  0  0
    0.4236   -0.0079   -0.1393 C   0  0  0  0  0  0
    1.8969   -0.4272   -0.0431 C   0  0  0  0  0  0
    2.1692   -1.7921   -0.6966 C   0  0  0  0  0  0
    3.5867   -2.3445   -0.4614 C   0  0  0  0  0  0
    4.8660   -1.5446   -1.4794 S   0  0  0  0  0  0
    5.1327    0.0875   -0.8593 C   0  0  0  0  0  0
    5.2923    0.4046    0.5123 C   0  0  0  0  0  0
    5.4767    1.7890    0.7932 C   0  0  0  0  0  0
    5.5998    1.8507    2.1697 N   0  0  0  0  0  0
    5.7428    2.6630    2.7520 H   0  0  0  0  0  0
    5.4940    0.5835    2.6063 C   0  0  0  0  0  0
    5.3097   -0.3525    1.6759 N   0  0  0  0  0  0
    5.5161    2.8000   -0.1221 N   0  0  0  0  0  0
    5.3611    2.3358   -1.3694 C   0  0  0  0  0  0
    5.1785    1.0749   -1.7837 N   0  0  0  0  0  0
   -2.6297    3.4079    1.0083 H   0  0  0  0  0  0
   -0.9941    3.9253    0.6098 H   0  0  0  0  0  0
   -1.3153    3.1174    2.1440 H   0  0  0  0  0  0
   -1.9402    1.0221    0.9003 H   0  0  0  0  0  0
   -1.6190    1.8215   -0.6194 H   0  0  0  0  0  0
    0.7841    2.1132    0.0412 H   0  0  0  0  0  0
    0.4627    1.3181    1.5632 H   0  0  0  0  0  0
   -0.2022   -0.7652    0.3346 H   0  0  0  0  0  0
    0.1250    0.0290   -1.1876 H   0  0  0  0  0  0
    2.5053    0.3401   -0.5182 H   0  0  0  0  0  0
    2.1961   -0.4589    1.0053 H   0  0  0  0  0  0
    1.4599   -2.5128   -0.2882 H   0  0  0  0  0  0
    1.9630   -1.7431   -1.7663 H   0  0  0  0  0  0
    3.8534   -2.3028    0.5933 H   0  0  0  0  0  0
    3.5942   -3.4009   -0.7300 H   0  0  0  0  0  0
    5.5550    0.3367    3.6561 H   0  0  0  0  0  0
    5.3854    3.0822   -2.1495 H   0  0  0  0  0  0
  1  2  1  0  0  0
  1 19  1  0  0  0
  1 20  1  0  0  0
  1 21  1  0  0  0
  2  3  1  0  0  0
  2 22  1  0  0  0
  2 23  1  0  0  0
  3  4  1  0  0  0
  3 24  1  0  0  0
  3 25  1  0  0  0
  4  5  1  0  0  0
  4 26  1  0  0  0
  4 27  1  0  0  0
  5  6  1  0  0  0
  5 28  1  0  0  0
  5 29  1  0  0  0
  6  7  1  0  0  0
  6 30  1  0  0  0
  6 31  1  0  0  0
  7  8  1  0  0  0
  7 32  1  0  0  0
  7 33  1  0  0  0
  8  9  1  0  0  0
  9 18  2  0  0  0
  9 10  1  0  0  0
 10 11  2  0  0  0
 10 15  1  0  0  0
 11 12  1  0  0  0
 11 16  1  0  0  0
 12 14  1  0  0  0
 12 13  1  0  0  0
 14 34  1  0  0  0
 14 15  2  0  0  0
 16 17  2  0  0  0
 17 35  1  0  0  0
 17 18  1  0  0  0
M  END
> <s_m_entry_id>
35

> <s_m_entry_name>
biosynth_p1.0.sdf.28

> <s_m_Source_Path>
/Users/Sebastito/Downloads

> <s_m_Source_File>
biosynth_p1.0.sdf.gz

> <i_m_Source_File_Index>
28

> <chiral flag>
0

> <version>
0

> <i_m_ct_enhanced_stereo_status>
0

> <s_m_source_file>
ligprep_vs.maegz

> <i_m_source_file_index>
28

> <i_lp_mmshare_version>
37011

> <i_f3d_flags>
0

> <r_lp_tautomer_probability>
0.605878

> <r_epik_Ionization_Penalty>
0.00227519

> <r_epik_Ionization_Penalty_Charging>
0

> <r_epik_Ionization_Penalty_Neutral>
0.00227519

> <r_epik_State_Penalty>
0.289684

> <r_epik_Charging_Adjusted_Penalty>
0.289684

> <i_epik_Tot_Q>
0

> <i_epik_Tot_abs_Q>
0

> <s_lp_Force_Field>
OPLS_2005

> <r_lp_Energy>
5.02369

> <b_lp_Chiralities_Consistent>
1

> <s_lp_Variant>
ZINC98216480-1

$$$$
ZINC98216480
                    3D
 Structure written by MMmdl.
 35 36  0  0  1  0            999 V2000
   -2.7309    1.5701    0.7116 C   0  0  0  0  0  0
   -1.7176    0.5604    0.1620 C   0  0  0  0  0  0
   -0.2664    1.0410    0.3064 C   0  0  0  0  0  0
    0.7454    0.0280   -0.2484 C   0  0  0  0  0  0
    2.1978    0.5075   -0.1143 C   0  0  0  0  0  0
    3.2026   -0.5096   -0.6787 C   0  0  0  0  0  0
    4.6678   -0.0507   -0.5847 C   0  0  0  0  0  0
    5.2675    0.0848    1.1267 S   0  0  0  0  0  0
    5.0447   -1.4876    1.9005 C   0  0  0  0  0  0
    5.2634   -2.7208    1.2640 C   0  0  0  0  0  0
    5.0329   -3.9089    2.0177 C   0  0  0  0  0  0
    5.2857   -5.0398    1.2534 N   0  0  0  0  0  0
    5.9315   -2.6242   -0.7921 H   0  0  0  0  0  0
    5.6577   -4.5093    0.0888 C   0  0  0  0  0  0
    5.6721   -3.1674    0.0188 N   0  0  0  0  0  0
    4.6247   -3.8873    3.2951 N   0  0  0  0  0  0
    4.4602   -2.6478    3.7896 C   0  0  0  0  0  0
    4.6422   -1.4640    3.1871 N   0  0  0  0  0  0
   -3.7500    1.2025    0.5891 H   0  0  0  0  0  0
   -2.6570    2.5255    0.1914 H   0  0  0  0  0  0
   -2.5685    1.7529    1.7741 H   0  0  0  0  0  0
   -1.8417   -0.3906    0.6810 H   0  0  0  0  0  0
   -1.9367    0.3693   -0.8891 H   0  0  0  0  0  0
   -0.1471    1.9937   -0.2111 H   0  0  0  0  0  0
   -0.0504    1.2316    1.3584 H   0  0  0  0  0  0
    0.6293   -0.9224    0.2739 H   0  0  0  0  0  0
    0.5236   -0.1675   -1.2982 H   0  0  0  0  0  0
    2.3165    1.4600   -0.6322 H   0  0  0  0  0  0
    2.4144    0.6980    0.9373 H   0  0  0  0  0  0
    3.0782   -1.4685   -0.1755 H   0  0  0  0  0  0
    2.9656   -0.6918   -1.7275 H   0  0  0  0  0  0
    5.3113   -0.7422   -1.1269 H   0  0  0  0  0  0
    4.7865    0.9188   -1.0690 H   0  0  0  0  0  0
    5.9335   -5.1261   -0.7541 H   0  0  0  0  0  0
    4.1353   -2.5989    4.8183 H   0  0  0  0  0  0
  1  2  1  0  0  0
  1 19  1  0  0  0
  1 20  1  0  0  0
  1 21  1  0  0  0
  2  3  1  0  0  0
  2 22  1  0  0  0
  2 23  1  0  0  0
  3  4  1  0  0  0
  3 24  1  0  0  0
  3 25  1  0  0  0
  4  5  1  0  0  0
  4 26  1  0  0  0
  4 27  1  0  0  0
  5  6  1  0  0  0
  5 28  1  0  0  0
  5 29  1  0  0  0
  6  7  1  0  0  0
  6 30  1  0  0  0
  6 31  1  0  0  0
  7  8  1  0  0  0
  7 32  1  0  0  0
  7 33  1  0  0  0
  8  9  1  0  0  0
  9 18  2  0  0  0
  9 10  1  0  0  0
 10 15  1  0  0  0
 10 11  2  0  0  0
 11 16  1  0  0  0
 11 12  1  0  0  0
 12 14  2  0  0  0
 13 15  1  0  0  0
 14 34  1  0  0  0
 14 15  1  0  0  0
 16 17  2  0  0  0
 17 18  1  0  0  0
 17 35  1  0  0  0
M  END
> <s_m_entry_id>
35

> <s_m_entry_name>
biosynth_p1.0.sdf.28

> <s_m_Source_Path>
/Users/Sebastito/Downloads

> <s_m_Source_File>
biosynth_p1.0.sdf.gz

> <i_m_Source_File_Index>
28

> <chiral flag>
0

> <version>
0

> <i_m_ct_enhanced_stereo_status>
0

> <s_m_source_file>
ligprep_vs.maegz

> <i_m_source_file_index>
28

> <i_lp_mmshare_version>
37011

> <i_f3d_flags>
0

> <r_lp_tautomer_probability>
0.393285

> <r_epik_Ionization_Penalty>
0.0357366

> <r_epik_Ionization_Penalty_Charging>
0.00471888

> <r_epik_Ionization_Penalty_Neutral>
0.0310177

> <r_epik_State_Penalty>
0.562897

> <r_epik_Charging_Adjusted_Penalty>
0.567616

> <i_epik_Tot_Q>
0

> <i_epik_Tot_abs_Q>
0

> <s_lp_Force_Field>
OPLS_2005

> <r_lp_Energy>
2.81825

> <b_lp_Chiralities_Consistent>
1

> <s_lp_Variant>
ZINC98216480-2

$$$$
ZINC98231091
                    3D
 Structure written by MMmdl.
 85 87  0  0  1  0            999 V2000
  -10.3239    7.4152    0.0161 C   0  0  0  0  0  0
   -8.7924    7.3594    0.0294 C   0  0  0  0  0  0
   -8.2547    5.9214    0.0074 C   0  0  0  0  0  0
   -6.7203    5.8646    0.0337 C   0  0  0  0  0  0
   -6.1836    4.4262    0.0064 C   0  0  0  0  0  0
   -4.6493    4.3672    0.0337 C   0  0  0  0  0  0
   -4.1156    2.9277   -0.0014 C   0  0  0  0  0  0
   -2.5815    2.8643    0.0236 C   0  0  0  0  0  0
   -2.0523    1.4236   -0.0185 C   0  0  0  0  0  0
   -0.5187    1.3564    0.0215 C   0  0  0  0  0  0
    0.0087   -0.0852   -0.0245 C   0  0  0  0  0  0
    1.5410   -0.1566    0.0419 C   0  0  0  0  0  0
    2.0647   -1.5988   -0.0147 C   0  0  0  0  0  0
    3.5997   -1.6732    0.0682 C   0  0  0  0  0  0
    4.1573   -3.1102    0.0519 C   0  0  0  0  0  0
    3.9224   -3.8430   -1.2722 C   0  0  0  0  0  0
    4.0716   -3.2884   -2.3616 O   0  0  0  0  0  0
    3.5177   -5.2321   -1.1478 N   0  0  0  0  0  0
    3.2277   -6.0963   -2.1486 C   0  0  0  0  0  0
    3.0067   -7.4097   -1.7322 N   0  0  0  0  0  0
    2.6860   -8.4749   -2.5847 C   0  0  0  0  0  0
    2.5131   -9.5970   -2.1138 O   0  0  0  0  0  0
    2.6051   -8.0642   -3.9568 C   0  0  0  0  0  0
    2.8329   -6.7440   -4.2833 C   0  0  0  0  0  0
    3.1450   -5.7312   -3.4201 N   0  0  0  0  0  0
    2.6922   -6.6474   -5.6494 N   0  0  0  0  0  0
    2.3882   -7.9219   -6.0662 C   0  0  0  0  0  0
    2.3222   -8.7992   -5.1032 N   0  0  0  0  0  0
    2.8680   -5.4079   -6.4581 C   0  0  1  0  0  0
    2.4464   -4.5938   -5.8666 H   0  0  0  0  0  0
    4.3397   -5.2190   -6.8113 C   0  0  0  0  0  0
    4.2447   -4.4608   -8.1251 C   0  0  1  0  0  0
    5.1029   -4.6768   -8.7649 H   0  0  0  0  0  0
    2.9508   -5.0334   -8.7341 C   0  0  2  0  0  0
    2.3739   -4.2392   -9.2102 H   0  0  0  0  0  0
    2.1761   -5.5586   -7.6574 O   0  0  0  0  0  0
    3.1619   -6.1452   -9.7760 C   0  0  0  0  0  0
    3.9182   -7.2124   -9.2247 O   0  0  0  0  0  0
    4.0036   -8.3799   -9.8764 C   0  0  0  0  0  0
    3.4921   -8.6423  -10.9648 O   0  0  0  0  0  0
    4.8220   -9.4113   -9.1109 C   0  0  0  0  0  0
    4.1245   -3.0146   -7.9040 N   0  0  0  0  0  0
    5.1752   -2.3969   -7.6858 N   0  3  0  0  0  0
    6.1337   -1.8729   -7.3671 N   0  5  0  0  0  0
  -10.6751    8.4471    0.0300 H   0  0  0  0  0  0
  -10.7437    6.9092    0.8859 H   0  0  0  0  0  0
  -10.7281    6.9384   -0.8773 H   0  0  0  0  0  0
   -8.4059    7.9082   -0.8301 H   0  0  0  0  0  0
   -8.4231    7.8753    0.9165 H   0  0  0  0  0  0
   -8.6523    5.3723    0.8621 H   0  0  0  0  0  0
   -8.6215    5.4117   -0.8845 H   0  0  0  0  0  0
   -6.3225    6.4162   -0.8191 H   0  0  0  0  0  0
   -6.3539    6.3715    0.9273 H   0  0  0  0  0  0
   -6.5824    3.8743    0.8586 H   0  0  0  0  0  0
   -6.5499    3.9203   -0.8878 H   0  0  0  0  0  0
   -4.2499    4.9229   -0.8156 H   0  0  0  0  0  0
   -4.2831    4.8682    0.9306 H   0  0  0  0  0  0
   -4.5144    2.3726    0.8487 H   0  0  0  0  0  0
   -4.4842    2.4264   -0.8972 H   0  0  0  0  0  0
   -2.1812    3.4221   -0.8239 H   0  0  0  0  0  0
   -2.2129    3.3604    0.9223 H   0  0  0  0  0  0
   -2.4615    0.8627    0.8227 H   0  0  0  0  0  0
   -2.4135    0.9315   -0.9224 H   0  0  0  0  0  0
   -0.1085    1.9193   -0.8178 H   0  0  0  0  0  0
   -0.1590    1.8460    0.9273 H   0  0  0  0  0  0
   -0.4154   -0.6524    0.8050 H   0  0  0  0  0  0
   -0.3386   -0.5689   -0.9384 H   0  0  0  0  0  0
    1.9673    0.4163   -0.7827 H   0  0  0  0  0  0
    1.8866    0.3196    0.9602 H   0  0  0  0  0  0
    1.6307   -2.1746    0.8037 H   0  0  0  0  0  0
    1.7185   -2.0655   -0.9373 H   0  0  0  0  0  0
    4.0397   -1.0958   -0.7463 H   0  0  0  0  0  0
    3.9280   -1.1858    0.9869 H   0  0  0  0  0  0
    5.2329   -3.0834    0.2287 H   0  0  0  0  0  0
    3.7239   -3.6827    0.8730 H   0  0  0  0  0  0
    3.4536   -5.5912   -0.2067 H   0  0  0  0  0  0
    2.2200   -8.1828   -7.1009 H   0  0  0  0  0  0
    4.8712   -4.6944   -6.0162 H   0  0  0  0  0  0
    4.8103   -6.1914   -6.9622 H   0  0  0  0  0  0
    2.1920   -6.5100  -10.1178 H   0  0  0  0  0  0
    3.6839   -5.7481  -10.6474 H   0  0  0  0  0  0
    5.6910   -8.9438   -8.6472 H   0  0  0  0  0  0
    5.1697  -10.1977   -9.7811 H   0  0  0  0  0  0
    4.2148   -9.8666   -8.3282 H   0  0  0  0  0  0
    3.0804   -7.6268   -0.7493 H   0  0  0  0  0  0
  1  2  1  0  0  0
  1 45  1  0  0  0
  1 46  1  0  0  0
  1 47  1  0  0  0
  2  3  1  0  0  0
  2 48  1  0  0  0
  2 49  1  0  0  0
  3  4  1  0  0  0
  3 50  1  0  0  0
  3 51  1  0  0  0
  4  5  1  0  0  0
  4 52  1  0  0  0
  4 53  1  0  0  0
  5  6  1  0  0  0
  5 54  1  0  0  0
  5 55  1  0  0  0
  6  7  1  0  0  0
  6 56  1  0  0  0
  6 57  1  0  0  0
  7  8  1  0  0  0
  7 58  1  0  0  0
  7 59  1  0  0  0
  8  9  1  0  0  0
  8 60  1  0  0  0
  8 61  1  0  0  0
  9 10  1  0  0  0
  9 62  1  0  0  0
  9 63  1  0  0  0
 10 11  1  0  0  0
 10 64  1  0  0  0
 10 65  1  0  0  0
 11 12  1  0  0  0
 11 66  1  0  0  0
 11 67  1  0  0  0
 12 13  1  0  0  0
 12 68  1  0  0  0
 12 69  1  0  0  0
 13 14  1  0  0  0
 13 70  1  0  0  0
 13 71  1  0  0  0
 14 15  1  0  0  0
 14 72  1  0  0  0
 14 73  1  0  0  0
 15 16  1  0  0  0
 15 74  1  0  0  0
 15 75  1  0  0  0
 16 17  2  0  0  0
 16 18  1  0  0  0
 18 76  1  0  0  0
 18 19  1  0  0  0
 19 20  1  0  0  0
 19 25  2  0  0  0
 20 21  1  0  0  0
 20 85  1  0  0  0
 21 23  1  0  0  0
 21 22  2  0  0  0
 23 28  1  0  0  0
 23 24  2  0  0  0
 24 25  1  0  0  0
 24 26  1  0  0  0
 26 29  1  0  0  0
 26 27  1  0  0  0
 27 77  1  0  0  0
 27 28  2  0  0  0
 29 30  1  0  0  0
 29 36  1  0  0  0
 29 31  1  0  0  0
 31 32  1  0  0  0
 31 78  1  0  0  0
 31 79  1  0  0  0
 32 33  1  0  0  0
 32 34  1  0  0  0
 32 42  1  0  0  0
 34 35  1  0  0  0
 34 36  1  0  0  0
 34 37  1  0  0  0
 37 38  1  0  0  0
 37 80  1  0  0  0
 37 81  1  0  0  0
 38 39  1  0  0  0
 39 40  2  0  0  0
 39 41  1  0  0  0
 41 82  1  0  0  0
 41 83  1  0  0  0
 41 84  1  0  0  0
 42 43  2  0  0  0
 43 44  2  0  0  0
M  CHG  2  43   1  44  -1
M  END
> <s_m_entry_id>
36

> <s_m_entry_name>
biosynth_p1.0.sdf.29

> <s_m_Source_Path>
/Users/Sebastito/Downloads

> <s_m_Source_File>
biosynth_p1.0.sdf.gz

> <i_m_Source_File_Index>
29

> <chiral flag>
1

> <version>
0

> <i_m_ct_enhanced_stereo_status>
0

> <s_m_source_file>
ligprep_vs.maegz

> <i_m_source_file_index>
29

> <i_lp_mmshare_version>
37011

> <r_lp_tautomer_probability>
0.85571

> <r_epik_Ionization_Penalty>
0.0250232

> <r_epik_Ionization_Penalty_Charging>
0.0249691

> <r_epik_Ionization_Penalty_Neutral>
5.40875e-05

> <r_epik_State_Penalty>
0.0826172

> <r_epik_Charging_Adjusted_Penalty>
0.107586

> <i_epik_Tot_Q>
0

> <i_epik_Tot_abs_Q>
2

> <s_epik_Chemistry_Notes>
This compound has an ester and may undergo hydrolysis at high or low pH. This compound contains an acetal/aminal-like group ( X-CH(R)-Y where X, Y are N, S, or O) that may be acid/base labile, releasing an aldehyde.

> <i_f3d_flags>
0

> <s_lp_Force_Field>
OPLS_2005

> <r_lp_Energy>
33.3063

> <b_lp_Chiralities_Consistent>
1

> <s_lp_Variant>
ZINC98231091-1

$$$$
ZINC98231091
                    3D
 Structure written by MMmdl.
 85 87  0  0  1  0            999 V2000
  -10.4745    2.7980    3.5063 C   0  0  0  0  0  0
   -8.9458    2.6862    3.5098 C   0  0  0  0  0  0
   -8.3700    2.4369    2.1085 C   0  0  0  0  0  0
   -6.8378    2.3319    2.1090 C   0  0  0  0  0  0
   -6.2643    2.0979    0.7039 C   0  0  0  0  0  0
   -4.7318    1.9988    0.6990 C   0  0  0  0  0  0
   -4.1639    1.7712   -0.7116 C   0  0  0  0  0  0
   -2.6271    1.7437   -0.7688 C   0  0  0  0  0  0
   -2.0022    0.5057   -0.1047 C   0  0  0  0  0  0
   -0.4757    0.4601   -0.2646 C   0  0  0  0  0  0
    0.1493   -0.7745    0.4011 C   0  0  0  0  0  0
    1.6728   -0.8364    0.2196 C   0  0  0  0  0  0
    2.2953   -2.0710    0.8874 C   0  0  0  0  0  0
    3.8130   -2.1575    0.6712 C   0  0  0  0  0  0
    4.4308   -3.3959    1.3451 C   0  0  0  0  0  0
    5.9444   -3.5004    1.1305 C   0  0  0  0  0  0
    6.4142   -3.2659    0.0147 O   0  0  0  0  0  0
    6.6575   -3.8607    2.2211 N   0  0  0  0  0  0
    8.0382   -4.0579    2.3422 C   0  0  0  0  0  0
    8.4601   -4.2911    3.6564 N   0  5  0  0  0  0
    9.7712   -4.5185    3.9851 C   0  0  0  0  0  0
   10.2446   -4.7352    5.0987 O   0  0  0  0  0  0
   10.6741   -4.4860    2.7911 C   0  0  0  0  0  0
   10.1744   -4.2486    1.5343 C   0  0  0  0  0  0
    8.8131   -4.0303    1.2878 N   0  0  0  0  0  0
   11.2043   -4.2769    0.6280 N   0  0  0  0  0  0
   12.2854   -4.5582    1.4150 C   0  0  0  0  0  0
   12.0269   -4.6839    2.7168 N   0  3  0  0  0  0
   11.1763   -4.1197   -0.8559 C   0  0  1  0  0  0
   10.6480   -4.9960   -1.2344 H   0  0  0  0  0  0
   10.5363   -2.7961   -1.2524 C   0  0  0  0  0  0
   11.1467   -2.5815   -2.6225 C   0  0  1  0  0  0
   11.1721   -1.5145   -2.8533 H   0  0  0  0  0  0
   12.5641   -3.1642   -2.4411 C   0  0  2  0  0  0
   12.8773   -3.7053   -3.3355 H   0  0  0  0  0  0
   12.4819   -4.0672   -1.3351 O   0  0  0  0  0  0
   13.6040   -2.0776   -2.1145 C   0  0  0  0  0  0
   14.9256   -2.5792   -2.2614 O   0  0  0  0  0  0
   15.5928   -3.0705   -1.2020 C   0  0  0  0  0  0
   15.1779   -3.1284   -0.0445 O   0  0  0  0  0  0
   16.9796   -3.5785   -1.5741 C   0  0  0  0  0  0
   10.3845   -3.3045   -3.6474 N   0  0  0  0  0  0
   10.5781   -2.9658   -4.8223 N   0  3  0  0  0  0
   10.8790   -2.6842   -5.8831 N   0  5  0  0  0  0
  -10.8534    2.9771    4.5126 H   0  0  0  0  0  0
  -10.9358    1.8826    3.1347 H   0  0  0  0  0  0
  -10.8072    3.6217    2.8742 H   0  0  0  0  0  0
   -8.5205    3.6015    3.9230 H   0  0  0  0  0  0
   -8.6468    1.8780    4.1782 H   0  0  0  0  0  0
   -8.7966    1.5203    1.6990 H   0  0  0  0  0  0
   -8.6768    3.2444    1.4426 H   0  0  0  0  0  0
   -6.4122    3.2455    2.5261 H   0  0  0  0  0  0
   -6.5297    1.5185    2.7672 H   0  0  0  0  0  0
   -6.6876    1.1829    0.2875 H   0  0  0  0  0  0
   -6.5772    2.9097    0.0462 H   0  0  0  0  0  0
   -4.3083    2.9127    1.1176 H   0  0  0  0  0  0
   -4.4263    1.1857    1.3576 H   0  0  0  0  0  0
   -4.5631    0.8455   -1.1282 H   0  0  0  0  0  0
   -4.5175    2.5714   -1.3628 H   0  0  0  0  0  0
   -2.3222    1.7694   -1.8158 H   0  0  0  0  0  0
   -2.2258    2.6510   -0.3161 H   0  0  0  0  0  0
   -2.2499    0.4901    0.9567 H   0  0  0  0  0  0
   -2.4376   -0.3958   -0.5376 H   0  0  0  0  0  0
   -0.2223    0.4668   -1.3254 H   0  0  0  0  0  0
   -0.0386    1.3632    0.1634 H   0  0  0  0  0  0
   -0.0904   -0.7734    1.4651 H   0  0  0  0  0  0
   -0.3006   -1.6766   -0.0157 H   0  0  0  0  0  0
    1.9095   -0.8423   -0.8451 H   0  0  0  0  0  0
    2.1261    0.0661    0.6317 H   0  0  0  0  0  0
    2.0799   -2.0524    1.9565 H   0  0  0  0  0  0
    1.8236   -2.9720    0.4932 H   0  0  0  0  0  0
    4.0179   -2.1762   -0.4002 H   0  0  0  0  0  0
    4.2869   -1.2555    1.0612 H   0  0  0  0  0  0
    4.2110   -3.3773    2.4138 H   0  0  0  0  0  0
    3.9707   -4.3016    0.9488 H   0  0  0  0  0  0
    6.1163   -3.9882    3.0636 H   0  0  0  0  0  0
   13.2744   -4.6753    1.0110 H   0  0  0  0  0  0
    9.4471   -2.8574   -1.2480 H   0  0  0  0  0  0
   10.8562   -2.0140   -0.5617 H   0  0  0  0  0  0
   13.5010   -1.2590   -2.8273 H   0  0  0  0  0  0
   13.4327   -1.6484   -1.1260 H   0  0  0  0  0  0
   16.9122   -4.5810   -1.9963 H   0  0  0  0  0  0
   17.6215   -3.6165   -0.6938 H   0  0  0  0  0  0
   17.4439   -2.9225   -2.3106 H   0  0  0  0  0  0
   12.6739   -4.8891    3.4673 H   0  0  0  0  0  0
  1  2  1  0  0  0
  1 45  1  0  0  0
  1 46  1  0  0  0
  1 47  1  0  0  0
  2  3  1  0  0  0
  2 48  1  0  0  0
  2 49  1  0  0  0
  3  4  1  0  0  0
  3 50  1  0  0  0
  3 51  1  0  0  0
  4  5  1  0  0  0
  4 52  1  0  0  0
  4 53  1  0  0  0
  5  6  1  0  0  0
  5 54  1  0  0  0
  5 55  1  0  0  0
  6  7  1  0  0  0
  6 56  1  0  0  0
  6 57  1  0  0  0
  7  8  1  0  0  0
  7 58  1  0  0  0
  7 59  1  0  0  0
  8  9  1  0  0  0
  8 60  1  0  0  0
  8 61  1  0  0  0
  9 10  1  0  0  0
  9 62  1  0  0  0
  9 63  1  0  0  0
 10 11  1  0  0  0
 10 64  1  0  0  0
 10 65  1  0  0  0
 11 12  1  0  0  0
 11 66  1  0  0  0
 11 67  1  0  0  0
 12 13  1  0  0  0
 12 68  1  0  0  0
 12 69  1  0  0  0
 13 14  1  0  0  0
 13 70  1  0  0  0
 13 71  1  0  0  0
 14 15  1  0  0  0
 14 72  1  0  0  0
 14 73  1  0  0  0
 15 16  1  0  0  0
 15 74  1  0  0  0
 15 75  1  0  0  0
 16 17  2  0  0  0
 16 18  1  0  0  0
 18 76  1  0  0  0
 18 19  1  0  0  0
 19 20  1  0  0  0
 19 25  2  0  0  0
 20 21  1  0  0  0
 21 23  1  0  0  0
 21 22  2  0  0  0
 23 28  1  0  0  0
 23 24  2  0  0  0
 24 25  1  0  0  0
 24 26  1  0  0  0
 26 29  1  0  0  0
 26 27  1  0  0  0
 27 77  1  0  0  0
 27 28  2  0  0  0
 28 85  1  0  0  0
 29 30  1  0  0  0
 29 36  1  0  0  0
 29 31  1  0  0  0
 31 32  1  0  0  0
 31 78  1  0  0  0
 31 79  1  0  0  0
 32 33  1  0  0  0
 32 34  1  0  0  0
 32 42  1  0  0  0
 34 35  1  0  0  0
 34 36  1  0  0  0
 34 37  1  0  0  0
 37 38  1  0  0  0
 37 80  1  0  0  0
 37 81  1  0  0  0
 38 39  1  0  0  0
 39 40  2  0  0  0
 39 41  1  0  0  0
 41 82  1  0  0  0
 41 83  1  0  0  0
 41 84  1  0  0  0
 42 43  2  0  0  0
 43 44  2  0  0  0
M  CHG  4  20  -1  28   1  43   1  44  -1
M  END
> <s_m_entry_id>
36

> <s_m_entry_name>
biosynth_p1.0.sdf.29

> <s_m_Source_Path>
/Users/Sebastito/Downloads

> <s_m_Source_File>
biosynth_p1.0.sdf.gz

> <i_m_Source_File_Index>
29

> <chiral flag>
1

> <version>
0

> <i_m_ct_enhanced_stereo_status>
0

> <s_m_source_file>
ligprep_vs.maegz

> <i_m_source_file_index>
29

> <i_lp_mmshare_version>
37011

> <r_lp_tautomer_probability>
0.144281

> <r_epik_Ionization_Penalty>
6.08145

> <r_epik_Ionization_Penalty_Charging>
6.05885

> <r_epik_Ionization_Penalty_Neutral>
0.022601

> <r_epik_State_Penalty>
1.20809

> <r_epik_Charging_Adjusted_Penalty>
7.26694

> <i_epik_Tot_Q>
0

> <i_epik_Tot_abs_Q>
4

> <s_epik_Chemistry_Notes>
This compound has an ester and may undergo hydrolysis at high or low pH. This compound contains an acetal/aminal-like group ( X-CH(R)-Y where X, Y are N, S, or O) that may be acid/base labile, releasing an aldehyde.

> <i_f3d_flags>
0

> <s_lp_Force_Field>
OPLS_2005

> <r_lp_Energy>
50.6341

> <b_lp_Chiralities_Consistent>
1

> <s_lp_Variant>
ZINC98231091-2

$$$$
ZINC98231139
                    3D
 Structure written by MMmdl.
 56 55  0  0  1  0            999 V2000
   -8.3890    5.7069   -0.0001 C   0  0  0  0  0  0
   -6.8566    5.7049    0.0136 C   0  0  0  0  0  0
   -6.2680    4.2867    0.0067 C   0  0  0  0  0  0
   -4.7326    4.2878    0.0237 C   0  0  0  0  0  0
   -4.1376    2.8723   -0.0024 C   0  0  0  0  0  0
   -2.6022    2.8824    0.0152 C   0  0  0  0  0  0
   -1.9978    1.4717   -0.0362 C   0  0  0  0  0  0
   -0.4625    1.4928   -0.0117 C   0  0  0  0  0  0
    0.1542    0.0887   -0.0883 C   0  0  0  0  0  0
    1.6888    0.1230   -0.0416 C   0  0  0  0  0  0
    2.3186   -1.2743   -0.1187 C   0  0  0  0  0  0
    3.8485   -1.2221   -0.0402 C   0  0  0  0  0  0
    4.3701   -2.5391   -0.1069 O   0  0  0  0  0  0
    5.6831   -2.7469    0.0905 C   0  0  0  0  0  0
    6.5135   -1.8725    0.3425 O   0  0  0  0  0  0
    6.0100   -4.2478   -0.0086 C   0  0  1  0  0  0
    5.1773   -4.7696   -0.4830 H   0  0  0  0  0  0
    7.2559   -4.4320   -0.9028 C   0  0  0  0  0  0
    6.1710   -4.7898    1.3776 N   0  3  0  0  0  0
    4.8967   -4.8372    2.1403 C   0  0  0  0  0  0
    6.8494   -6.1079    1.4371 C   0  0  0  0  0  0
   -8.7758    6.7261   -0.0001 H   0  0  0  0  0  0
   -8.7915    5.1982    0.8762 H   0  0  0  0  0  0
   -8.7753    5.2045   -0.8873 H   0  0  0  0  0  0
   -6.4898    6.2572   -0.8523 H   0  0  0  0  0  0
   -6.5052    6.2436    0.8944 H   0  0  0  0  0  0
   -6.6399    3.7351    0.8710 H   0  0  0  0  0  0
   -6.6213    3.7527   -0.8762 H   0  0  0  0  0  0
   -4.3622    4.8515   -0.8335 H   0  0  0  0  0  0
   -4.3808    4.8127    0.9128 H   0  0  0  0  0  0
   -4.5069    2.3062    0.8537 H   0  0  0  0  0  0
   -4.4867    2.3488   -0.8933 H   0  0  0  0  0  0
   -2.2346    3.4626   -0.8321 H   0  0  0  0  0  0
   -2.2541    3.3941    0.9133 H   0  0  0  0  0  0
   -2.3667    0.8866    0.8072 H   0  0  0  0  0  0
   -2.3401    0.9636   -0.9385 H   0  0  0  0  0  0
   -0.0955    2.0941   -0.8445 H   0  0  0  0  0  0
   -0.1235    1.9880    0.8990 H   0  0  0  0  0  0
   -0.2205   -0.5182    0.7368 H   0  0  0  0  0  0
   -0.1722   -0.4022   -1.0061 H   0  0  0  0  0  0
    2.0633    0.7339   -0.8639 H   0  0  0  0  0  0
    2.0105    0.6137    0.8779 H   0  0  0  0  0  0
    1.9352   -1.8922    0.6943 H   0  0  0  0  0  0
    2.0180   -1.7602   -1.0478 H   0  0  0  0  0  0
    4.2509   -0.6272   -0.8612 H   0  0  0  0  0  0
    4.1558   -0.7472    0.8929 H   0  0  0  0  0  0
    7.1355   -3.9140   -1.8554 H   0  0  0  0  0  0
    7.4285   -5.4811   -1.1433 H   0  0  0  0  0  0
    8.1571   -4.0418   -0.4277 H   0  0  0  0  0  0
    4.1649   -5.4684    1.6348 H   0  0  0  0  0  0
    4.4601   -3.8477    2.2722 H   0  0  0  0  0  0
    5.0577   -5.2418    3.1403 H   0  0  0  0  0  0
    6.3184   -6.8473    0.8359 H   0  0  0  0  0  0
    6.8948   -6.4764    2.4626 H   0  0  0  0  0  0
    7.8793   -6.0470    1.0863 H   0  0  0  0  0  0
    6.7763   -4.1449    1.8660 H   0  0  0  0  0  0
  1  2  1  0  0  0
  1 22  1  0  0  0
  1 23  1  0  0  0
  1 24  1  0  0  0
  2  3  1  0  0  0
  2 25  1  0  0  0
  2 26  1  0  0  0
  3  4  1  0  0  0
  3 27  1  0  0  0
  3 28  1  0  0  0
  4  5  1  0  0  0
  4 29  1  0  0  0
  4 30  1  0  0  0
  5  6  1  0  0  0
  5 31  1  0  0  0
  5 32  1  0  0  0
  6  7  1  0  0  0
  6 33  1  0  0  0
  6 34  1  0  0  0
  7  8  1  0  0  0
  7 35  1  0  0  0
  7 36  1  0  0  0
  8  9  1  0  0  0
  8 37  1  0  0  0
  8 38  1  0  0  0
  9 10  1  0  0  0
  9 39  1  0  0  0
  9 40  1  0  0  0
 10 11  1  0  0  0
 10 41  1  0  0  0
 10 42  1  0  0  0
 11 12  1  0  0  0
 11 43  1  0  0  0
 11 44  1  0  0  0
 12 13  1  0  0  0
 12 45  1  0  0  0
 12 46  1  0  0  0
 13 14  1  0  0  0
 14 15  2  0  0  0
 14 16  1  0  0  0
 16 17  1  0  0  0
 16 18  1  0  0  0
 16 19  1  0  0  0
 18 47  1  0  0  0
 18 48  1  0  0  0
 18 49  1  0  0  0
 19 20  1  0  0  0
 19 21  1  0  0  0
 19 56  1  0  0  0
 20 50  1  0  0  0
 20 51  1  0  0  0
 20 52  1  0  0  0
 21 53  1  0  0  0
 21 54  1  0  0  0
 21 55  1  0  0  0
M  CHG  1  19   1
M  END
> <s_m_entry_id>
37

> <s_m_entry_name>
biosynth_p1.0.sdf.30

> <s_m_Source_Path>
/Users/Sebastito/Downloads

> <s_m_Source_File>
biosynth_p1.0.sdf.gz

> <i_m_Source_File_Index>
30

> <chiral flag>
1

> <version>
0

> <i_m_ct_enhanced_stereo_status>
0

> <s_m_source_file>
ligprep_vs.maegz

> <i_m_source_file_index>
30

> <i_lp_mmshare_version>
37011

> <r_epik_Ionization_Penalty>
0.10686

> <r_epik_Ionization_Penalty_Charging>
0.10686

> <r_epik_Ionization_Penalty_Neutral>
0

> <r_epik_State_Penalty>
0.0966972

> <r_epik_Charging_Adjusted_Penalty>
0.203557

> <i_epik_Tot_Q>
1

> <i_epik_Tot_abs_Q>
1

> <s_epik_Chemistry_Notes>
This compound has an ester and may undergo hydrolysis at high or low pH.

> <i_f3d_flags>
0

> <s_lp_Force_Field>
OPLS_2005

> <r_lp_Energy>
10.535

> <b_lp_Chiralities_Consistent>
1

> <s_lp_Variant>
ZINC98231139-1

$$$$
ZINC98231139
                    3D
 Structure written by MMmdl.
 55 54  0  0  1  0            999 V2000
   -8.2241    6.4118    0.3752 C   0  0  0  0  0  0
   -6.6995    6.2579    0.3737 C   0  0  0  0  0  0
   -6.2544    4.7949    0.2364 C   0  0  0  0  0  0
   -4.7265    4.6414    0.2288 C   0  0  0  0  0  0
   -4.2810    3.1776    0.0997 C   0  0  0  0  0  0
   -2.7530    3.0253    0.0933 C   0  0  0  0  0  0
   -2.3055    1.5618   -0.0340 C   0  0  0  0  0  0
   -0.7773    1.4128   -0.0449 C   0  0  0  0  0  0
   -0.3262   -0.0477   -0.1912 C   0  0  0  0  0  0
    1.2046   -0.1891   -0.2162 C   0  0  0  0  0  0
    1.6918   -1.6439   -0.3082 C   0  0  0  0  0  0
    1.3655   -2.3121   -1.6505 C   0  0  0  0  0  0
    1.9261   -3.6144   -1.6745 O   0  0  0  0  0  0
    1.6904   -4.4221   -2.7231 C   0  0  0  0  0  0
    0.9873   -4.1363   -3.6943 O   0  0  0  0  0  0
    2.3907   -5.7825   -2.5176 C   0  0  1  0  0  0
    3.3114   -5.5861   -1.9656 H   0  0  0  0  0  0
    1.4888   -6.6442   -1.6050 C   0  0  0  0  0  0
    2.7719   -6.4921   -3.7739 N   0  0  0  0  0  0
    3.6400   -5.6803   -4.6309 C   0  0  0  0  0  0
    3.4662   -7.7500   -3.4998 C   0  0  0  0  0  0
   -8.5081    7.4601    0.4698 H   0  0  0  0  0  0
   -8.6735    5.8689    1.2072 H   0  0  0  0  0  0
   -8.6598    6.0309   -0.5489 H   0  0  0  0  0  0
   -6.2806    6.8462   -0.4434 H   0  0  0  0  0  0
   -6.2959    6.6786    1.2953 H   0  0  0  0  0  0
   -6.6742    4.2100    1.0556 H   0  0  0  0  0  0
   -6.6648    4.3766   -0.6835 H   0  0  0  0  0  0
   -4.3089    5.2217   -0.5950 H   0  0  0  0  0  0
   -4.3147    5.0657    1.1454 H   0  0  0  0  0  0
   -4.6996    2.5971    0.9228 H   0  0  0  0  0  0
   -4.6917    2.7533   -0.8173 H   0  0  0  0  0  0
   -2.3352    3.6042   -0.7312 H   0  0  0  0  0  0
   -2.3423    3.4519    1.0092 H   0  0  0  0  0  0
   -2.7209    0.9813    0.7908 H   0  0  0  0  0  0
   -2.7176    1.1361   -0.9497 H   0  0  0  0  0  0
   -0.3628    2.0023   -0.8635 H   0  0  0  0  0  0
   -0.3657    1.8296    0.8751 H   0  0  0  0  0  0
   -0.7323   -0.6375    0.6316 H   0  0  0  0  0  0
   -0.7504   -0.4603   -1.1069 H   0  0  0  0  0  0
    1.6158    0.3861   -1.0470 H   0  0  0  0  0  0
    1.6134    0.2563    0.6914 H   0  0  0  0  0  0
    2.7726   -1.6579   -0.1633 H   0  0  0  0  0  0
    1.2681   -2.2285    0.5093 H   0  0  0  0  0  0
    0.2858   -2.3755   -1.7898 H   0  0  0  0  0  0
    1.7715   -1.7243   -2.4748 H   0  0  0  0  0  0
    1.0862   -6.0687   -0.7700 H   0  0  0  0  0  0
    2.0383   -7.4730   -1.1595 H   0  0  0  0  0  0
    0.6432   -7.0568   -2.1566 H   0  0  0  0  0  0
    3.9287   -6.2321   -5.5264 H   0  0  0  0  0  0
    4.5523   -5.3900   -4.1074 H   0  0  0  0  0  0
    3.1502   -4.7736   -4.9833 H   0  0  0  0  0  0
    3.7902   -8.2281   -4.4252 H   0  0  0  0  0  0
    2.8157   -8.4694   -3.0039 H   0  0  0  0  0  0
    4.3468   -7.5932   -2.8748 H   0  0  0  0  0  0
  1  2  1  0  0  0
  1 22  1  0  0  0
  1 23  1  0  0  0
  1 24  1  0  0  0
  2  3  1  0  0  0
  2 25  1  0  0  0
  2 26  1  0  0  0
  3  4  1  0  0  0
  3 27  1  0  0  0
  3 28  1  0  0  0
  4  5  1  0  0  0
  4 29  1  0  0  0
  4 30  1  0  0  0
  5  6  1  0  0  0
  5 31  1  0  0  0
  5 32  1  0  0  0
  6  7  1  0  0  0
  6 33  1  0  0  0
  6 34  1  0  0  0
  7  8  1  0  0  0
  7 35  1  0  0  0
  7 36  1  0  0  0
  8  9  1  0  0  0
  8 37  1  0  0  0
  8 38  1  0  0  0
  9 10  1  0  0  0
  9 39  1  0  0  0
  9 40  1  0  0  0
 10 11  1  0  0  0
 10 41  1  0  0  0
 10 42  1  0  0  0
 11 12  1  0  0  0
 11 43  1  0  0  0
 11 44  1  0  0  0
 12 13  1  0  0  0
 12 45  1  0  0  0
 12 46  1  0  0  0
 13 14  1  0  0  0
 14 15  2  0  0  0
 14 16  1  0  0  0
 16 17  1  0  0  0
 16 18  1  0  0  0
 16 19  1  0  0  0
 18 47  1  0  0  0
 18 48  1  0  0  0
 18 49  1  0  0  0
 19 20  1  0  0  0
 19 21  1  0  0  0
 20 50  1  0  0  0
 20 51  1  0  0  0
 20 52  1  0  0  0
 21 53  1  0  0  0
 21 54  1  0  0  0
 21 55  1  0  0  0
M  END
> <s_m_entry_id>
37

> <s_m_entry_name>
biosynth_p1.0.sdf.30

> <s_m_Source_Path>
/Users/Sebastito/Downloads

> <s_m_Source_File>
biosynth_p1.0.sdf.gz

> <i_m_Source_File_Index>
30

> <chiral flag>
1

> <version>
0

> <i_m_ct_enhanced_stereo_status>
0

> <s_m_source_file>
ligprep_vs.maegz

> <i_m_source_file_index>
30

> <i_lp_mmshare_version>
37011

> <r_epik_Ionization_Penalty>
1.06744

> <r_epik_Ionization_Penalty_Charging>
0

> <r_epik_Ionization_Penalty_Neutral>
1.06744

> <r_epik_State_Penalty>
1.12172

> <r_epik_Charging_Adjusted_Penalty>
1.12172

> <i_epik_Tot_Q>
0

> <i_epik_Tot_abs_Q>
0

> <s_epik_Chemistry_Notes>
This compound has an ester and may undergo hydrolysis at high or low pH.

> <i_f3d_flags>
0

> <s_lp_Force_Field>
OPLS_2005

> <r_lp_Energy>
10.4253

> <b_lp_Chiralities_Consistent>
1

> <s_lp_Variant>
ZINC98231139-2

$$$$
ZINC98231140
                    3D
 Structure written by MMmdl.
 56 55  0  0  1  0            999 V2000
   -8.4416    5.6527    0.0904 C   0  0  0  0  0  0
   -6.9122    5.6778   -0.0056 C   0  0  0  0  0  0
   -6.2970    4.2713    0.0074 C   0  0  0  0  0  0
   -4.7636    4.2978   -0.0695 C   0  0  0  0  0  0
   -4.1473    2.8916   -0.0490 C   0  0  0  0  0  0
   -2.6129    2.9203   -0.1038 C   0  0  0  0  0  0
   -1.9937    1.5157   -0.0666 C   0  0  0  0  0  0
   -0.4592    1.5481   -0.1104 C   0  0  0  0  0  0
    0.1632    0.1454   -0.0571 C   0  0  0  0  0  0
    1.6977    0.1802   -0.1043 C   0  0  0  0  0  0
    2.3220   -1.2199   -0.0346 C   0  0  0  0  0  0
    3.8533   -1.1754   -0.0809 C   0  0  0  0  0  0
    4.3623   -2.4962    0.0019 O   0  0  0  0  0  0
    5.6937   -2.6992    0.0129 C   0  0  0  0  0  0
    6.5488   -1.8158   -0.0441 O   0  0  0  0  0  0
    6.0253   -4.1997    0.1171 C   0  0  2  0  0  0
    7.1090   -4.3156    0.1629 H   0  0  0  0  0  0
    5.5273   -4.9212   -1.1549 C   0  0  0  0  0  0
    5.4504   -4.7335    1.3921 N   0  3  0  0  0  0
    5.3527   -6.2129    1.4442 C   0  0  0  0  0  0
    6.1463   -4.2222    2.6005 C   0  0  0  0  0  0
   -8.8482    6.6642    0.0757 H   0  0  0  0  0  0
   -8.7701    5.1754    1.0141 H   0  0  0  0  0  0
   -8.8800    5.1057   -0.7447 H   0  0  0  0  0  0
   -6.6179    6.1975   -0.9181 H   0  0  0  0  0  0
   -6.5111    6.2605    0.8246 H   0  0  0  0  0  0
   -6.6049    3.7502    0.9148 H   0  0  0  0  0  0
   -6.6929    3.6944   -0.8294 H   0  0  0  0  0  0
   -4.4535    4.8169   -0.9773 H   0  0  0  0  0  0
   -4.3700    4.8773    0.7666 H   0  0  0  0  0  0
   -4.4676    2.3692    0.8534 H   0  0  0  0  0  0
   -4.5301    2.3149   -0.8919 H   0  0  0  0  0  0
   -2.2919    3.4346   -1.0105 H   0  0  0  0  0  0
   -2.2323    3.5055    0.7343 H   0  0  0  0  0  0
   -2.3194    1.0005    0.8379 H   0  0  0  0  0  0
   -2.3688    0.9308   -0.9074 H   0  0  0  0  0  0
   -0.1337    2.0558   -1.0193 H   0  0  0  0  0  0
   -0.0857    2.1415    0.7252 H   0  0  0  0  0  0
   -0.1605   -0.3594    0.8540 H   0  0  0  0  0  0
   -0.2124   -0.4500   -0.8902 H   0  0  0  0  0  0
    2.0216    0.6764   -1.0202 H   0  0  0  0  0  0
    2.0723    0.7842    0.7230 H   0  0  0  0  0  0
    2.0021   -1.7157    0.8828 H   0  0  0  0  0  0
    1.9513   -1.8270   -0.8615 H   0  0  0  0  0  0
    4.1892   -0.7081   -1.0077 H   0  0  0  0  0  0
    4.2367   -0.5789    0.7482 H   0  0  0  0  0  0
    5.8745   -4.4136   -2.0560 H   0  0  0  0  0  0
    4.4381   -4.9627   -1.1997 H   0  0  0  0  0  0
    5.9057   -5.9420   -1.2107 H   0  0  0  0  0  0
    6.3285   -6.6748    1.2888 H   0  0  0  0  0  0
    4.6615   -6.5971    0.6943 H   0  0  0  0  0  0
    4.9739   -6.5425    2.4123 H   0  0  0  0  0  0
    7.1901   -4.5388    2.6098 H   0  0  0  0  0  0
    5.6715   -4.5986    3.5072 H   0  0  0  0  0  0
    6.1206   -3.1343    2.6600 H   0  0  0  0  0  0
    4.5012   -4.3906    1.4386 H   0  0  0  0  0  0
  1  2  1  0  0  0
  1 22  1  0  0  0
  1 23  1  0  0  0
  1 24  1  0  0  0
  2  3  1  0  0  0
  2 25  1  0  0  0
  2 26  1  0  0  0
  3  4  1  0  0  0
  3 27  1  0  0  0
  3 28  1  0  0  0
  4  5  1  0  0  0
  4 29  1  0  0  0
  4 30  1  0  0  0
  5  6  1  0  0  0
  5 31  1  0  0  0
  5 32  1  0  0  0
  6  7  1  0  0  0
  6 33  1  0  0  0
  6 34  1  0  0  0
  7  8  1  0  0  0
  7 35  1  0  0  0
  7 36  1  0  0  0
  8  9  1  0  0  0
  8 37  1  0  0  0
  8 38  1  0  0  0
  9 10  1  0  0  0
  9 39  1  0  0  0
  9 40  1  0  0  0
 10 11  1  0  0  0
 10 41  1  0  0  0
 10 42  1  0  0  0
 11 12  1  0  0  0
 11 43  1  0  0  0
 11 44  1  0  0  0
 12 13  1  0  0  0
 12 45  1  0  0  0
 12 46  1  0  0  0
 13 14  1  0  0  0
 14 15  2  0  0  0
 14 16  1  0  0  0
 16 17  1  0  0  0
 16 18  1  0  0  0
 16 19  1  0  0  0
 18 47  1  0  0  0
 18 48  1  0  0  0
 18 49  1  0  0  0
 19 20  1  0  0  0
 19 21  1  0  0  0
 19 56  1  0  0  0
 20 50  1  0  0  0
 20 51  1  0  0  0
 20 52  1  0  0  0
 21 53  1  0  0  0
 21 54  1  0  0  0
 21 55  1  0  0  0
M  CHG  1  19   1
M  END
> <s_m_entry_id>
38

> <s_m_entry_name>
biosynth_p1.0.sdf.31

> <s_m_Source_Path>
/Users/Sebastito/Downloads

> <s_m_Source_File>
biosynth_p1.0.sdf.gz

> <i_m_Source_File_Index>
31

> <chiral flag>
1

> <version>
0

> <i_m_ct_enhanced_stereo_status>
0

> <s_m_source_file>
ligprep_vs.maegz

> <i_m_source_file_index>
31

> <i_lp_mmshare_version>
37011

> <r_epik_Ionization_Penalty>
0.10686

> <r_epik_Ionization_Penalty_Charging>
0.10686

> <r_epik_Ionization_Penalty_Neutral>
0

> <r_epik_State_Penalty>
0.0966972

> <r_epik_Charging_Adjusted_Penalty>
0.203557

> <i_epik_Tot_Q>
1

> <i_epik_Tot_abs_Q>
1

> <s_epik_Chemistry_Notes>
This compound has an ester and may undergo hydrolysis at high or low pH.

> <i_f3d_flags>
0

> <s_lp_Force_Field>
OPLS_2005

> <r_lp_Energy>
9.42406

> <b_lp_Chiralities_Consistent>
1

> <s_lp_Variant>
ZINC98231140-1

$$$$
ZINC98231140
                    3D
 Structure written by MMmdl.
 55 54  0  0  1  0            999 V2000
   -8.1897    6.4265   -0.1467 C   0  0  0  0  0  0
   -6.6707    6.2524   -0.2537 C   0  0  0  0  0  0
   -6.2266    4.8004   -0.0269 C   0  0  0  0  0  0
   -4.7069    4.6206   -0.1569 C   0  0  0  0  0  0
   -4.2641    3.1681    0.0715 C   0  0  0  0  0  0
   -2.7470    2.9821   -0.0763 C   0  0  0  0  0  0
   -2.3086    1.5280    0.1508 C   0  0  0  0  0  0
   -0.7954    1.3320   -0.0228 C   0  0  0  0  0  0
   -0.3654   -0.1276    0.1832 C   0  0  0  0  0  0
    1.1460   -0.3319   -0.0109 C   0  0  0  0  0  0
    1.5887   -1.7991    0.1066 C   0  0  0  0  0  0
    1.4743   -2.3579    1.5310 C   0  0  0  0  0  0
    1.9332   -3.6987    1.5454 O   0  0  0  0  0  0
    1.9278   -4.3925    2.6989 C   0  0  0  0  0  0
    1.5664   -3.9547    3.7915 O   0  0  0  0  0  0
    2.4460   -5.8291    2.4820 C   0  0  2  0  0  0
    2.3755   -6.3254    3.4509 H   0  0  0  0  0  0
    3.9448   -5.7612    2.1135 C   0  0  0  0  0  0
    1.6652   -6.6466    1.5079 N   0  0  0  0  0  0
    2.0818   -8.0479    1.5358 C   0  0  0  0  0  0
    0.2195   -6.5941    1.7375 C   0  0  0  0  0  0
   -8.4739    7.4661   -0.3112 H   0  0  0  0  0  0
   -8.5516    6.1349    0.8395 H   0  0  0  0  0  0
   -8.7086    5.8187   -0.8884 H   0  0  0  0  0  0
   -6.3400    6.5867   -1.2376 H   0  0  0  0  0  0
   -6.1827    6.9022    0.4735 H   0  0  0  0  0  0
   -6.5482    4.4735    0.9628 H   0  0  0  0  0  0
   -6.7300    4.1520   -0.7449 H   0  0  0  0  0  0
   -4.3879    4.9450   -1.1482 H   0  0  0  0  0  0
   -4.2017    5.2704    0.5587 H   0  0  0  0  0  0
   -4.5740    2.8474    1.0669 H   0  0  0  0  0  0
   -4.7786    2.5173   -0.6368 H   0  0  0  0  0  0
   -2.4390    3.3023   -1.0726 H   0  0  0  0  0  0
   -2.2300    3.6319    0.6307 H   0  0  0  0  0  0
   -2.6031    1.2122    1.1524 H   0  0  0  0  0  0
   -2.8393    0.8777   -0.5458 H   0  0  0  0  0  0
   -0.5006    1.6587   -1.0209 H   0  0  0  0  0  0
   -0.2622    1.9713    0.6818 H   0  0  0  0  0  0
   -0.6566   -0.4471    1.1840 H   0  0  0  0  0  0
   -0.9088   -0.7652   -0.5152 H   0  0  0  0  0  0
    1.4259    0.0348   -0.9992 H   0  0  0  0  0  0
    1.6987    0.2767    0.7058 H   0  0  0  0  0  0
    1.0084   -2.4154   -0.5812 H   0  0  0  0  0  0
    2.6271   -1.8782   -0.2174 H   0  0  0  0  0  0
    2.0684   -1.7564    2.2204 H   0  0  0  0  0  0
    0.4390   -2.3263    1.8718 H   0  0  0  0  0  0
    4.4760   -5.0309    2.7256 H   0  0  0  0  0  0
    4.0879   -5.4819    1.0689 H   0  0  0  0  0  0
    4.4454   -6.7150    2.2772 H   0  0  0  0  0  0
    1.4930   -8.6438    0.8373 H   0  0  0  0  0  0
    1.9623   -8.4799    2.5307 H   0  0  0  0  0  0
    3.1212   -8.1671    1.2328 H   0  0  0  0  0  0
   -0.3102   -7.2479    1.0433 H   0  0  0  0  0  0
   -0.1845   -5.5947    1.5759 H   0  0  0  0  0  0
   -0.0316   -6.9061    2.7523 H   0  0  0  0  0  0
  1  2  1  0  0  0
  1 22  1  0  0  0
  1 23  1  0  0  0
  1 24  1  0  0  0
  2  3  1  0  0  0
  2 25  1  0  0  0
  2 26  1  0  0  0
  3  4  1  0  0  0
  3 27  1  0  0  0
  3 28  1  0  0  0
  4  5  1  0  0  0
  4 29  1  0  0  0
  4 30  1  0  0  0
  5  6  1  0  0  0
  5 31  1  0  0  0
  5 32  1  0  0  0
  6  7  1  0  0  0
  6 33  1  0  0  0
  6 34  1  0  0  0
  7  8  1  0  0  0
  7 35  1  0  0  0
  7 36  1  0  0  0
  8  9  1  0  0  0
  8 37  1  0  0  0
  8 38  1  0  0  0
  9 10  1  0  0  0
  9 39  1  0  0  0
  9 40  1  0  0  0
 10 11  1  0  0  0
 10 41  1  0  0  0
 10 42  1  0  0  0
 11 12  1  0  0  0
 11 43  1  0  0  0
 11 44  1  0  0  0
 12 13  1  0  0  0
 12 45  1  0  0  0
 12 46  1  0  0  0
 13 14  1  0  0  0
 14 15  2  0  0  0
 14 16  1  0  0  0
 16 17  1  0  0  0
 16 18  1  0  0  0
 16 19  1  0  0  0
 18 47  1  0  0  0
 18 48  1  0  0  0
 18 49  1  0  0  0
 19 20  1  0  0  0
 19 21  1  0  0  0
 20 50  1  0  0  0
 20 51  1  0  0  0
 20 52  1  0  0  0
 21 53  1  0  0  0
 21 54  1  0  0  0
 21 55  1  0  0  0
M  END
> <s_m_entry_id>
38

> <s_m_entry_name>
biosynth_p1.0.sdf.31

> <s_m_Source_Path>
/Users/Sebastito/Downloads

> <s_m_Source_File>
biosynth_p1.0.sdf.gz

> <i_m_Source_File_Index>
31

> <chiral flag>
1

> <version>
0

> <i_m_ct_enhanced_stereo_status>
0

> <s_m_source_file>
ligprep_vs.maegz

> <i_m_source_file_index>
31

> <i_lp_mmshare_version>
37011

> <r_epik_Ionization_Penalty>
1.06744

> <r_epik_Ionization_Penalty_Charging>
0

> <r_epik_Ionization_Penalty_Neutral>
1.06744

> <r_epik_State_Penalty>
1.12172

> <r_epik_Charging_Adjusted_Penalty>
1.12172

> <i_epik_Tot_Q>
0

> <i_epik_Tot_abs_Q>
0

> <s_epik_Chemistry_Notes>
This compound has an ester and may undergo hydrolysis at high or low pH.

> <i_f3d_flags>
0

> <s_lp_Force_Field>
OPLS_2005

> <r_lp_Energy>
9.00936

> <b_lp_Chiralities_Consistent>
1

> <s_lp_Variant>
ZINC98231140-2

$$$$
ZINC98231168
                    3D
 Structure written by MMmdl.
 71 72  0  0  1  0            999 V2000
   -3.6237    0.9989   -6.4984 C   0  0  0  0  0  0
   -2.9309    2.1775   -5.7860 C   0  0  2  0  0  0
   -3.6849    2.6664   -5.1655 H   0  0  0  0  0  0
   -2.2888    3.2292   -6.7191 C   0  0  2  0  0  0
   -1.6046    2.7480   -7.4195 H   0  0  0  0  0  0
   -1.5248    4.2720   -5.8842 C   0  0  1  0  0  0
   -2.2245    4.9033   -5.3333 H   0  0  0  0  0  0
   -0.5561    3.5749   -4.9071 C   0  0  2  0  0  0
    0.2092    3.0241   -5.4565 H   0  0  0  0  0  0
   -1.3548    2.5674   -4.0530 C   0  0  1  0  0  0
   -2.1197    3.0743   -3.4602 H   0  0  0  0  0  0
   -1.9537    1.6377   -4.9034 O   0  0  0  0  0  0
   -0.4530    1.9339   -3.2020 O   0  0  0  0  0  0
   -1.0388    1.0902   -2.2136 C   0  0  2  0  0  0
   -2.1303    1.1379   -2.1963 H   0  0  0  0  0  0
   -0.4862    1.5876   -0.8566 C   0  0  2  0  0  0
    0.5906    1.7361   -0.9544 H   0  0  0  0  0  0
   -0.7533    0.6245    0.1628 O   0  0  0  0  0  0
   -0.1764   -0.6307   -0.0355 C   0  0  1  0  0  0
   -0.4030   -1.2381    0.8426 H   0  0  0  0  0  0
   -0.8326   -1.2576   -1.2777 C   0  0  1  0  0  0
   -1.9047   -1.3211   -1.0834 H   0  0  0  0  0  0
   -0.5749   -0.3538   -2.4993 C   0  0  1  0  0  0
    0.4824   -0.3676   -2.7693 H   0  0  0  0  0  0
   -1.3438   -0.8733   -3.5669 O   0  0  0  0  0  0
   -0.3322   -2.6285   -1.4935 N   0  3  0  0  0  0
    1.2039   -0.5716   -0.2465 O   0  0  0  0  0  0
    2.0469   -0.5883    0.9066 C   0  0  1  0  0  0
    1.6966   -1.4436    1.4841 H   0  0  0  0  0  0
    3.4816   -0.9776    0.4616 C   0  0  1  0  0  0
    4.0981   -1.0822    1.3549 H   0  0  0  0  0  0
    3.5124   -2.3052   -0.3183 C   0  0  0  0  0  0
    4.8246   -2.8235   -0.3543 O   0  0  0  0  0  0
    4.0581    0.0322   -0.3434 O   0  0  0  0  0  0
    1.9033    0.6738    1.8211 C   0  0  1  0  0  0
    0.8513    0.8426    2.0481 H   0  0  0  0  0  0
    2.6829    0.6299    3.1661 C   0  0  2  0  0  0
    2.4637   -0.6832    3.9264 C   0  0  0  0  0  0
    1.3559   -1.1391    4.2054 O   0  0  0  0  0  0
    2.3084    1.7611    4.0323 N   0  0  0  0  0  0
    2.3917    1.8015    1.1202 O   0  0  0  0  0  0
   -1.1415    2.9060   -0.4096 C   0  0  0  0  0  0
   -0.3102    3.5750    0.5134 O   0  0  0  0  0  0
    0.1051    4.5705   -4.0413 N   0  3  0  0  0  0
   -0.7609    5.0751   -6.7638 O   0  0  0  0  0  0
   -3.3169    3.8817   -7.4395 O   0  0  0  0  0  0
   -2.8041    0.4262   -7.4963 O   0  0  0  0  0  0
   -3.9085    0.2311   -5.7784 H   0  0  0  0  0  0
   -4.5425    1.3393   -6.9768 H   0  0  0  0  0  0
   -1.2282   -0.3154   -4.3222 H   0  0  0  0  0  0
    0.6673   -2.6027   -1.6355 H   0  0  0  0  0  0
   -0.7781   -3.0191   -2.3117 H   0  0  0  0  0  0
    2.8828   -3.0486    0.1715 H   0  0  0  0  0  0
    3.1322   -2.1813   -1.3332 H   0  0  0  0  0  0
    5.3854   -2.1876   -0.7731 H   0  0  0  0  0  0
    4.0250    0.8490    0.1325 H   0  0  0  0  0  0
    3.3970   -1.1711    4.2079 H   0  0  0  0  0  0
    2.2698    2.5645    1.6659 H   0  0  0  0  0  0
   -1.2736    3.5777   -1.2571 H   0  0  0  0  0  0
   -2.1285    2.7353    0.0216 H   0  0  0  0  0  0
   -0.2110    3.0297    1.2792 H   0  0  0  0  0  0
   -0.5891    5.0759   -3.5101 H   0  0  0  0  0  0
   -1.3432    5.4502   -7.4078 H   0  0  0  0  0  0
   -3.9191    4.2730   -6.8252 H   0  0  0  0  0  0
   -2.6736    1.0636   -8.1824 H   0  0  0  0  0  0
    0.6231    5.2184   -4.6180 H   0  0  0  0  0  0
    1.3239    1.7019    4.2889 H   0  0  0  0  0  0
    2.8463    1.7413    4.8978 H   0  0  0  0  0  0
   -0.5448   -3.1994   -0.6881 H   0  0  0  0  0  0
    3.7484    0.6981    2.9433 H   0  0  0  0  0  0
    0.7385    4.1006   -3.4101 H   0  0  0  0  0  0
  1  2  1  0  0  0
  1 47  1  0  0  0
  1 48  1  0  0  0
  1 49  1  0  0  0
  2  3  1  0  0  0
  2 12  1  0  0  0
  2  4  1  0  0  0
  4  5  1  0  0  0
  4  6  1  0  0  0
  4 46  1  0  0  0
  6  7  1  0  0  0
  6  8  1  0  0  0
  6 45  1  0  0  0
  8  9  1  0  0  0
  8 10  1  0  0  0
  8 44  1  0  0  0
 10 11  1  0  0  0
 10 12  1  0  0  0
 10 13  1  0  0  0
 13 14  1  0  0  0
 14 15  1  0  0  0
 14 23  1  0  0  0
 14 16  1  0  0  0
 16 17  1  0  0  0
 16 18  1  0  0  0
 16 42  1  0  0  0
 18 19  1  0  0  0
 19 20  1  0  0  0
 19 21  1  0  0  0
 19 27  1  0  0  0
 21 22  1  0  0  0
 21 23  1  0  0  0
 21 26  1  0  0  0
 23 24  1  0  0  0
 23 25  1  0  0  0
 25 50  1  0  0  0
 26 51  1  0  0  0
 26 52  1  0  0  0
 26 69  1  0  0  0
 27 28  1  0  0  0
 28 29  1  0  0  0
 28 30  1  0  0  0
 28 35  1  0  0  0
 30 31  1  0  0  0
 30 32  1  0  0  0
 30 34  1  0  0  0
 32 33  1  0  0  0
 32 53  1  0  0  0
 32 54  1  0  0  0
 33 55  1  0  0  0
 34 56  1  0  0  0
 35 36  1  0  0  0
 35 37  1  0  0  0
 35 41  1  0  0  0
 37 38  1  0  0  0
 37 40  1  0  0  0
 37 70  1  0  0  0
 38 39  2  0  0  0
 38 57  1  0  0  0
 40 67  1  0  0  0
 40 68  1  0  0  0
 41 58  1  0  0  0
 42 43  1  0  0  0
 42 59  1  0  0  0
 42 60  1  0  0  0
 43 61  1  0  0  0
 44 62  1  0  0  0
 44 66  1  0  0  0
 44 71  1  0  0  0
 45 63  1  0  0  0
 46 64  1  0  0  0
 47 65  1  0  0  0
M  CHG  2  26   1  44   1
M  END
> <s_m_entry_id>
39

> <s_m_entry_name>
biosynth_p1.0.sdf.32

> <s_m_Source_Path>
/Users/Sebastito/Downloads

> <s_m_Source_File>
biosynth_p1.0.sdf.gz

> <i_m_Source_File_Index>
32

> <chiral flag>
1

> <version>
0

> <i_m_ct_enhanced_stereo_status>
0

> <s_m_source_file>
ligprep_vs.maegz

> <i_m_source_file_index>
32

> <i_lp_mmshare_version>
37011

> <r_epik_Ionization_Penalty>
0.938878

> <r_epik_Ionization_Penalty_Charging>
0.505476

> <r_epik_Ionization_Penalty_Neutral>
0.433402

> <r_epik_State_Penalty>
0.656471

> <r_epik_Charging_Adjusted_Penalty>
1.16195

> <i_epik_Tot_Q>
2

> <i_epik_Tot_abs_Q>
2

> <s_epik_Chemistry_Notes>
This compound contains an acetal/aminal-like group ( X-CH(R)-Y where X, Y are N, S, or O) that may be acid/base labile, releasing an aldehyde.

> <i_f3d_flags>
0

> <s_lp_Force_Field>
OPLS_2005

> <r_lp_Energy>
67.6103

> <b_lp_Chiralities_Consistent>
1

> <s_lp_Variant>
ZINC98231168-1

$$$$
ZINC98231168
                    3D
 Structure written by MMmdl.
 70 71  0  0  1  0            999 V2000
   -3.8566    1.1828   -6.3435 C   0  0  0  0  0  0
   -3.0981    2.3280   -5.6492 C   0  0  2  0  0  0
   -3.7778    2.8786   -4.9950 H   0  0  0  0  0  0
   -2.4378    3.3029   -6.6497 C   0  0  2  0  0  0
   -1.8624    2.7389   -7.3857 H   0  0  0  0  0  0
   -1.5229    4.2949   -5.9055 C   0  0  1  0  0  0
   -2.1227    4.9927   -5.3181 H   0  0  0  0  0  0
   -0.5424    3.5448   -4.9826 C   0  0  2  0  0  0
    0.1469    2.9355   -5.5698 H   0  0  0  0  0  0
   -1.3530    2.6061   -4.0696 C   0  0  1  0  0  0
   -2.0442    3.1663   -3.4366 H   0  0  0  0  0  0
   -2.0658    1.7230   -4.8782 O   0  0  0  0  0  0
   -0.4461    1.9175   -3.2688 O   0  0  0  0  0  0
   -1.0319    1.0850   -2.2715 C   0  0  2  0  0  0
   -2.1238    1.1292   -2.2605 H   0  0  0  0  0  0
   -0.4938    1.5875   -0.9116 C   0  0  2  0  0  0
    0.5837    1.7359   -0.9994 H   0  0  0  0  0  0
   -0.7790    0.6251    0.1029 O   0  0  0  0  0  0
   -0.1918   -0.6255   -0.0862 C   0  0  1  0  0  0
   -0.4240   -1.2316    0.7912 H   0  0  0  0  0  0
   -0.8328   -1.2636   -1.3330 C   0  0  1  0  0  0
   -1.9074   -1.2905   -1.1466 H   0  0  0  0  0  0
   -0.5668   -0.3603   -2.5538 C   0  0  1  0  0  0
    0.4895   -0.3810   -2.8269 H   0  0  0  0  0  0
   -1.3495   -0.8578   -3.6225 O   0  0  0  0  0  0
   -0.3542   -2.6448   -1.5157 N   0  0  0  0  0  0
    1.1906   -0.5463   -0.2840 O   0  0  0  0  0  0
    2.0182   -0.5870    0.8801 C   0  0  1  0  0  0
    1.6515   -1.4410    1.4491 H   0  0  0  0  0  0
    3.4592   -0.9832    0.4509 C   0  0  1  0  0  0
    4.0698   -1.1209    1.3433 H   0  0  0  0  0  0
    3.5259   -2.2815   -0.3771 C   0  0  0  0  0  0
    3.0736   -3.3872    0.3760 O   0  0  0  0  0  0
    4.0795    0.0435   -0.2962 O   0  0  0  0  0  0
    1.8642    0.6657    1.8043 C   0  0  1  0  0  0
    0.8097    0.8226    2.0302 H   0  0  0  0  0  0
    2.6363    0.6179    3.1529 C   0  0  2  0  0  0
    2.3679   -0.6769    3.9293 C   0  0  0  0  0  0
    3.0345   -1.7026    3.8062 O   0  0  0  0  0  0
    2.2929    1.7728    4.0007 N   0  0  0  0  0  0
    2.3343    1.8050    1.1088 O   0  0  0  0  0  0
   -1.1492    2.9061   -0.4664 C   0  0  0  0  0  0
   -0.3295    3.5572    0.4796 O   0  0  0  0  0  0
    0.2358    4.5002   -4.1711 N   0  3  0  0  0  0
   -0.7667    5.0182   -6.8591 O   0  0  0  0  0  0
   -3.4538    4.0343   -7.3090 O   0  0  0  0  0  0
   -4.7582    0.5881   -5.4342 O   0  0  0  0  0  0
   -4.4453    1.5584   -7.1807 H   0  0  0  0  0  0
   -3.1705    0.4350   -6.7427 H   0  0  0  0  0  0
   -2.2559   -0.8652   -3.3554 H   0  0  0  0  0  0
    0.6533   -2.6518   -1.6683 H   0  0  0  0  0  0
   -0.5257   -3.1934   -0.6744 H   0  0  0  0  0  0
    2.9330   -2.2009   -1.2888 H   0  0  0  0  0  0
    4.5538   -2.4807   -0.6829 H   0  0  0  0  0  0
    3.1529   -4.1648   -0.1553 H   0  0  0  0  0  0
    3.5669    0.1962   -1.0749 H   0  0  0  0  0  0
    1.5258   -0.5990    4.6175 H   0  0  0  0  0  0
    1.7872    1.9346    0.3495 H   0  0  0  0  0  0
   -1.2581    3.5894   -1.3072 H   0  0  0  0  0  0
   -2.1453    2.7362   -0.0562 H   0  0  0  0  0  0
   -0.7738    4.3352    0.7809 H   0  0  0  0  0  0
   -0.3917    5.0578   -3.6100 H   0  0  0  0  0  0
   -0.3647    4.4055   -7.4566 H   0  0  0  0  0  0
   -3.9514    4.5138   -6.6643 H   0  0  0  0  0  0
   -5.2229   -0.1034   -5.8806 H   0  0  0  0  0  0
    0.7645    5.1037   -4.7847 H   0  0  0  0  0  0
    2.9150    1.8159    4.8065 H   0  0  0  0  0  0
    2.4246    2.6387    3.4794 H   0  0  0  0  0  0
    3.7036    0.6537    2.9311 H   0  0  0  0  0  0
    0.8677    3.9920   -3.5684 H   0  0  0  0  0  0
  1  2  1  0  0  0
  1 47  1  0  0  0
  1 48  1  0  0  0
  1 49  1  0  0  0
  2  3  1  0  0  0
  2 12  1  0  0  0
  2  4  1  0  0  0
  4  5  1  0  0  0
  4  6  1  0  0  0
  4 46  1  0  0  0
  6  7  1  0  0  0
  6  8  1  0  0  0
  6 45  1  0  0  0
  8  9  1  0  0  0
  8 10  1  0  0  0
  8 44  1  0  0  0
 10 11  1  0  0  0
 10 12  1  0  0  0
 10 13  1  0  0  0
 13 14  1  0  0  0
 14 15  1  0  0  0
 14 23  1  0  0  0
 14 16  1  0  0  0
 16 17  1  0  0  0
 16 18  1  0  0  0
 16 42  1  0  0  0
 18 19  1  0  0  0
 19 20  1  0  0  0
 19 21  1  0  0  0
 19 27  1  0  0  0
 21 22  1  0  0  0
 21 23  1  0  0  0
 21 26  1  0  0  0
 23 24  1  0  0  0
 23 25  1  0  0  0
 25 50  1  0  0  0
 26 51  1  0  0  0
 26 52  1  0  0  0
 27 28  1  0  0  0
 28 29  1  0  0  0
 28 30  1  0  0  0
 28 35  1  0  0  0
 30 31  1  0  0  0
 30 32  1  0  0  0
 30 34  1  0  0  0
 32 33  1  0  0  0
 32 53  1  0  0  0
 32 54  1  0  0  0
 33 55  1  0  0  0
 34 56  1  0  0  0
 35 36  1  0  0  0
 35 37  1  0  0  0
 35 41  1  0  0  0
 37 38  1  0  0  0
 37 40  1  0  0  0
 37 69  1  0  0  0
 38 39  2  0  0  0
 38 57  1  0  0  0
 40 67  1  0  0  0
 40 68  1  0  0  0
 41 58  1  0  0  0
 42 43  1  0  0  0
 42 59  1  0  0  0
 42 60  1  0  0  0
 43 61  1  0  0  0
 44 62  1  0  0  0
 44 66  1  0  0  0
 44 70  1  0  0  0
 45 63  1  0  0  0
 46 64  1  0  0  0
 47 65  1  0  0  0
M  CHG  1  44   1
M  END
> <s_m_entry_id>
39

> <s_m_entry_name>
biosynth_p1.0.sdf.32

> <s_m_Source_Path>
/Users/Sebastito/Downloads

> <s_m_Source_File>
biosynth_p1.0.sdf.gz

> <i_m_Source_File_Index>
32

> <chiral flag>
1

> <version>
0

> <i_m_ct_enhanced_stereo_status>
0

> <s_m_source_file>
ligprep_vs.maegz

> <i_m_source_file_index>
32

> <i_lp_mmshare_version>
37011

> <r_epik_Ionization_Penalty>
1.24947

> <r_epik_Ionization_Penalty_Charging>
0.216591

> <r_epik_Ionization_Penalty_Neutral>
1.03288

> <r_epik_State_Penalty>
0.980187

> <r_epik_Charging_Adjusted_Penalty>
1.19678

> <i_epik_Tot_Q>
1

> <i_epik_Tot_abs_Q>
1

> <s_epik_Chemistry_Notes>
This compound contains an acetal/aminal-like group ( X-CH(R)-Y where X, Y are N, S, or O) that may be acid/base labile, releasing an aldehyde.

> <i_f3d_flags>
0

> <s_lp_Force_Field>
OPLS_2005

> <r_lp_Energy>
69.1337

> <b_lp_Chiralities_Consistent>
1

> <s_lp_Variant>
ZINC98231168-2

$$$$
ZINC98231168
                    3D
 Structure written by MMmdl.
 71 72  0  0  1  0            999 V2000
   -4.8085    1.3950   -5.1621 C   0  0  0  0  0  0
   -3.6019    2.3436   -5.0476 C   0  0  2  0  0  0
   -3.9021    3.2705   -4.5536 H   0  0  0  0  0  0
   -2.9622    2.6600   -6.4142 C   0  0  2  0  0  0
   -2.7809    1.7287   -6.9535 H   0  0  0  0  0  0
   -1.6430    3.4357   -6.2296 C   0  0  1  0  0  0
   -1.8506    4.4593   -5.9118 H   0  0  0  0  0  0
   -0.7103    2.7461   -5.2098 C   0  0  2  0  0  0
   -0.3616    1.7946   -5.6142 H   0  0  0  0  0  0
   -1.5173    2.4401   -3.9286 C   0  0  1  0  0  0
   -1.8439    3.3564   -3.4318 H   0  0  0  0  0  0
   -2.6253    1.6657   -4.2692 O   0  0  0  0  0  0
   -0.6829    1.7210   -3.0790 O   0  0  0  0  0  0
   -1.2277    1.4379   -1.7949 C   0  0  2  0  0  0
   -2.2717    1.7425   -1.6880 H   0  0  0  0  0  0
   -0.3609    2.1953   -0.7554 C   0  0  2  0  0  0
    0.6900    2.0971   -1.0140 H   0  0  0  0  0  0
   -0.5214    1.6482    0.5511 O   0  0  0  0  0  0
   -0.2223    0.2920    0.6857 C   0  0  1  0  0  0
   -0.3659    0.0517    1.7372 H   0  0  0  0  0  0
   -1.2426   -0.5008   -0.1492 C   0  0  1  0  0  0
   -2.2367   -0.2440    0.2211 H   0  0  0  0  0  0
   -1.1153   -0.0920   -1.6269 C   0  0  1  0  0  0
   -0.1720   -0.4546   -2.0352 H   0  0  0  0  0  0
   -2.1829   -0.6967   -2.3322 O   0  0  0  0  0  0
   -1.0514   -1.9517    0.0382 N   0  3  0  0  0  0
    1.0755   -0.0426    0.2658 O   0  0  0  0  0  0
    2.1578    0.4261    1.0751 C   0  0  1  0  0  0
    1.9051    1.4366    1.4034 H   0  0  0  0  0  0
    2.2800   -0.5033    2.3244 C   0  0  1  0  0  0
    1.3150   -0.5785    2.8206 H   0  0  0  0  0  0
    2.7724   -1.9288    1.9982 C   0  0  0  0  0  0
    2.3142   -2.8427    2.9718 O   0  0  0  0  0  0
    3.1366    0.0785    3.2871 O   0  0  0  0  0  0
    3.4775    0.5181    0.2341 C   0  0  1  0  0  0
    3.8992   -0.4746    0.0776 H   0  0  0  0  0  0
    3.3874    1.2407   -1.1419 C   0  0  2  0  0  0
    2.6187    0.4436   -2.2021 C   0  0  0  0  0  0
    2.6113   -0.7841   -2.2764 O   0  0  0  0  0  0
    4.7262    1.4307   -1.7333 N   0  3  0  0  0  0
    4.4049    1.2659    1.0014 O   0  0  0  0  0  0
   -0.6874    3.6960   -0.6494 C   0  0  0  0  0  0
   -0.0513    4.4263   -1.6761 O   0  0  0  0  0  0
    0.4370    3.6165   -4.8950 N   0  0  0  0  0  0
   -0.9758    3.4497   -7.4782 O   0  0  0  0  0  0
   -3.8572    3.4653   -7.1585 O   0  0  0  0  0  0
   -5.5705    1.4422   -3.9746 O   0  0  0  0  0  0
   -5.4654    1.6995   -5.9771 H   0  0  0  0  0  0
   -4.4920    0.3721   -5.3700 H   0  0  0  0  0  0
   -2.9952   -0.3018   -2.0533 H   0  0  0  0  0  0
   -0.1245   -2.2118   -0.2670 H   0  0  0  0  0  0
   -1.7369   -2.4519   -0.5100 H   0  0  0  0  0  0
    2.3742   -2.2591    1.0383 H   0  0  0  0  0  0
    3.8600   -1.9740    1.9280 H   0  0  0  0  0  0
    2.6818   -3.6936    2.7854 H   0  0  0  0  0  0
    2.7402    0.8762    3.6043 H   0  0  0  0  0  0
    2.0766    1.0828   -2.8994 H   0  0  0  0  0  0
    4.4982    0.8519    1.8474 H   0  0  0  0  0  0
   -1.7628    3.8744   -0.6678 H   0  0  0  0  0  0
   -0.3158    4.0909    0.2968 H   0  0  0  0  0  0
   -0.2495    5.3435   -1.5599 H   0  0  0  0  0  0
    0.9260    3.8700   -5.7527 H   0  0  0  0  0  0
   -0.8371    2.5572   -7.7558 H   0  0  0  0  0  0
   -3.9838    4.2810   -6.6983 H   0  0  0  0  0  0
   -5.0260    1.1518   -3.2594 H   0  0  0  0  0  0
    0.1141    4.4885   -4.4781 H   0  0  0  0  0  0
    4.6450    1.9328   -2.6058 H   0  0  0  0  0  0
    5.1513    0.5298   -1.9001 H   0  0  0  0  0  0
   -1.1640   -2.1868    1.0139 H   0  0  0  0  0  0
    2.9329    2.2235   -1.0169 H   0  0  0  0  0  0
    5.2997    1.9584   -1.0902 H   0  0  0  0  0  0
  1  2  1  0  0  0
  1 47  1  0  0  0
  1 48  1  0  0  0
  1 49  1  0  0  0
  2  3  1  0  0  0
  2 12  1  0  0  0
  2  4  1  0  0  0
  4  5  1  0  0  0
  4  6  1  0  0  0
  4 46  1  0  0  0
  6  7  1  0  0  0
  6  8  1  0  0  0
  6 45  1  0  0  0
  8  9  1  0  0  0
  8 10  1  0  0  0
  8 44  1  0  0  0
 10 11  1  0  0  0
 10 12  1  0  0  0
 10 13  1  0  0  0
 13 14  1  0  0  0
 14 15  1  0  0  0
 14 23  1  0  0  0
 14 16  1  0  0  0
 16 17  1  0  0  0
 16 18  1  0  0  0
 16 42  1  0  0  0
 18 19  1  0  0  0
 19 20  1  0  0  0
 19 21  1  0  0  0
 19 27  1  0  0  0
 21 22  1  0  0  0
 21 23  1  0  0  0
 21 26  1  0  0  0
 23 24  1  0  0  0
 23 25  1  0  0  0
 25 50  1  0  0  0
 26 51  1  0  0  0
 26 52  1  0  0  0
 26 69  1  0  0  0
 27 28  1  0  0  0
 28 29  1  0  0  0
 28 30  1  0  0  0
 28 35  1  0  0  0
 30 31  1  0  0  0
 30 32  1  0  0  0
 30 34  1  0  0  0
 32 33  1  0  0  0
 32 53  1  0  0  0
 32 54  1  0  0  0
 33 55  1  0  0  0
 34 56  1  0  0  0
 35 36  1  0  0  0
 35 37  1  0  0  0
 35 41  1  0  0  0
 37 38  1  0  0  0
 37 40  1  0  0  0
 37 70  1  0  0  0
 38 39  2  0  0  0
 38 57  1  0  0  0
 40 67  1  0  0  0
 40 68  1  0  0  0
 40 71  1  0  0  0
 41 58  1  0  0  0
 42 43  1  0  0  0
 42 59  1  0  0  0
 42 60  1  0  0  0
 43 61  1  0  0  0
 44 62  1  0  0  0
 44 66  1  0  0  0
 45 63  1  0  0  0
 46 64  1  0  0  0
 47 65  1  0  0  0
M  CHG  2  26   1  40   1
M  END
> <s_m_entry_id>
39

> <s_m_entry_name>
biosynth_p1.0.sdf.32

> <s_m_Source_Path>
/Users/Sebastito/Downloads

> <s_m_Source_File>
biosynth_p1.0.sdf.gz

> <i_m_Source_File_Index>
32

> <chiral flag>
1

> <version>
0

> <i_m_ct_enhanced_stereo_status>
0

> <s_m_source_file>
ligprep_vs.maegz

> <i_m_source_file_index>
32

> <i_lp_mmshare_version>
37011

> <r_epik_Ionization_Penalty>
4.02661

> <r_epik_Ionization_Penalty_Charging>
0.657324

> <r_epik_Ionization_Penalty_Neutral>
3.36928

> <r_epik_State_Penalty>
1.08035

> <r_epik_Charging_Adjusted_Penalty>
1.73767

> <i_epik_Tot_Q>
2

> <i_epik_Tot_abs_Q>
2

> <s_epik_Chemistry_Notes>
This compound contains an acetal/aminal-like group ( X-CH(R)-Y where X, Y are N, S, or O) that may be acid/base labile, releasing an aldehyde.

> <i_f3d_flags>
0

> <s_lp_Force_Field>
OPLS_2005

> <r_lp_Energy>
69.9488

> <b_lp_Chiralities_Consistent>
1

> <s_lp_Variant>
ZINC98231168-3

$$$$
ZINC98231168
                    3D
 Structure written by MMmdl.
 70 71  0  0  1  0            999 V2000
   -3.8191    1.1761   -6.3818 C   0  0  0  0  0  0
   -3.0788    2.3353   -5.6907 C   0  0  2  0  0  0
   -3.7699    2.8934   -5.0549 H   0  0  0  0  0  0
   -2.4012    3.2883   -6.6947 C   0  0  2  0  0  0
   -1.8105    2.7063   -7.4045 H   0  0  0  0  0  0
   -1.5050    4.3044   -5.9619 C   0  0  1  0  0  0
   -2.1198    5.0473   -5.4499 H   0  0  0  0  0  0
   -0.5560    3.6194   -4.9541 C   0  0  2  0  0  0
    0.1933    3.0356   -5.4909 H   0  0  0  0  0  0
   -1.3697    2.6410   -4.0796 C   0  0  1  0  0  0
   -2.0811    3.1768   -3.4473 H   0  0  0  0  0  0
   -2.0510    1.7486   -4.9051 O   0  0  0  0  0  0
   -0.4605    1.9481   -3.2843 O   0  0  0  0  0  0
   -1.0433    1.1334   -2.2721 C   0  0  2  0  0  0
   -2.1346    1.1839   -2.2535 H   0  0  0  0  0  0
   -0.4850    1.6475   -0.9226 C   0  0  2  0  0  0
    0.5945    1.7783   -1.0154 H   0  0  0  0  0  0
   -0.7777    0.7031    0.1075 O   0  0  0  0  0  0
   -0.2126   -0.5605   -0.0659 C   0  0  1  0  0  0
   -0.4585   -1.1501    0.8190 H   0  0  0  0  0  0
   -0.8619   -1.2020   -1.3035 C   0  0  1  0  0  0
   -1.9356   -1.2583   -1.1168 H   0  0  0  0  0  0
   -0.5900   -0.3178   -2.5359 C   0  0  1  0  0  0
    0.4693   -0.3453   -2.7969 H   0  0  0  0  0  0
   -1.3531   -0.8425   -3.6065 O   0  0  0  0  0  0
   -0.3618   -2.5770   -1.4915 N   0  3  0  0  0  0
    1.1711   -0.5174   -0.2618 O   0  0  0  0  0  0
    1.9955   -0.5977    0.9014 C   0  0  1  0  0  0
    1.6240   -1.4752    1.4304 H   0  0  0  0  0  0
    3.4404   -0.9853    0.4751 C   0  0  1  0  0  0
    4.0063   -1.2499    1.3685 H   0  0  0  0  0  0
    3.5072   -2.1779   -0.4991 C   0  0  0  0  0  0
    2.9494   -3.3403    0.0772 O   0  0  0  0  0  0
    4.1303    0.0971   -0.1144 O   0  0  0  0  0  0
    1.8309    0.6171    1.8736 C   0  0  1  0  0  0
    0.7763    0.7475    2.1156 H   0  0  0  0  0  0
    2.6288    0.5295    3.2056 C   0  0  2  0  0  0
    2.4587   -0.8282    3.8977 C   0  0  0  0  0  0
    1.3696   -1.3208    4.1885 O   0  0  0  0  0  0
    2.2337    1.6011    4.1365 N   0  0  0  0  0  0
    2.2738    1.7865    1.2130 O   0  0  0  0  0  0
   -1.1193    2.9829   -0.4968 C   0  0  0  0  0  0
   -0.3252    3.6046    0.4908 O   0  0  0  0  0  0
    0.0954    4.6289   -4.1014 N   0  0  0  0  0  0
   -0.7018    4.9373   -6.9405 O   0  0  0  0  0  0
   -3.4052    4.0028   -7.3916 O   0  0  0  0  0  0
   -4.7139    0.5687   -5.4746 O   0  0  0  0  0  0
   -4.4111    1.5403   -7.2215 H   0  0  0  0  0  0
   -3.1206    0.4380   -6.7777 H   0  0  0  0  0  0
   -2.2696   -0.7010   -3.4239 H   0  0  0  0  0  0
    0.6401   -2.5531   -1.6175 H   0  0  0  0  0  0
   -0.7946   -2.9820   -2.3091 H   0  0  0  0  0  0
    2.9909   -1.9577   -1.4341 H   0  0  0  0  0  0
    4.5454   -2.3938   -0.7543 H   0  0  0  0  0  0
    3.1504   -4.0770   -0.4800 H   0  0  0  0  0  0
    3.6216    0.4172   -0.8439 H   0  0  0  0  0  0
    3.4095   -1.3134    4.1181 H   0  0  0  0  0  0
    2.0978    2.5283    1.7723 H   0  0  0  0  0  0
   -1.1681    3.6715   -1.3395 H   0  0  0  0  0  0
   -2.1377    2.8427   -0.1336 H   0  0  0  0  0  0
   -0.7190    4.4337    0.7161 H   0  0  0  0  0  0
    0.7453    4.1812   -3.4567 H   0  0  0  0  0  0
   -1.2722    5.3313   -7.5832 H   0  0  0  0  0  0
   -3.9137    4.4949   -6.7651 H   0  0  0  0  0  0
   -4.2143    0.2160   -4.7547 H   0  0  0  0  0  0
    0.6396    5.2731   -4.6740 H   0  0  0  0  0  0
    1.2496    1.5114    4.3859 H   0  0  0  0  0  0
    2.7711    1.5393    5.0001 H   0  0  0  0  0  0
   -0.5846   -3.1329   -0.6784 H   0  0  0  0  0  0
    3.6885    0.6407    2.9727 H   0  0  0  0  0  0
  1  2  1  0  0  0
  1 47  1  0  0  0
  1 48  1  0  0  0
  1 49  1  0  0  0
  2  3  1  0  0  0
  2 12  1  0  0  0
  2  4  1  0  0  0
  4  5  1  0  0  0
  4  6  1  0  0  0
  4 46  1  0  0  0
  6  7  1  0  0  0
  6  8  1  0  0  0
  6 45  1  0  0  0
  8  9  1  0  0  0
  8 10  1  0  0  0
  8 44  1  0  0  0
 10 11  1  0  0  0
 10 12  1  0  0  0
 10 13  1  0  0  0
 13 14  1  0  0  0
 14 15  1  0  0  0
 14 23  1  0  0  0
 14 16  1  0  0  0
 16 17  1  0  0  0
 16 18  1  0  0  0
 16 42  1  0  0  0
 18 19  1  0  0  0
 19 20  1  0  0  0
 19 21  1  0  0  0
 19 27  1  0  0  0
 21 22  1  0  0  0
 21 23  1  0  0  0
 21 26  1  0  0  0
 23 24  1  0  0  0
 23 25  1  0  0  0
 25 50  1  0  0  0
 26 51  1  0  0  0
 26 52  1  0  0  0
 26 69  1  0  0  0
 27 28  1  0  0  0
 28 29  1  0  0  0
 28 30  1  0  0  0
 28 35  1  0  0  0
 30 31  1  0  0  0
 30 32  1  0  0  0
 30 34  1  0  0  0
 32 33  1  0  0  0
 32 53  1  0  0  0
 32 54  1  0  0  0
 33 55  1  0  0  0
 34 56  1  0  0  0
 35 36  1  0  0  0
 35 37  1  0  0  0
 35 41  1  0  0  0
 37 38  1  0  0  0
 37 40  1  0  0  0
 37 70  1  0  0  0
 38 39  2  0  0  0
 38 57  1  0  0  0
 40 67  1  0  0  0
 40 68  1  0  0  0
 41 58  1  0  0  0
 42 43  1  0  0  0
 42 59  1  0  0  0
 42 60  1  0  0  0
 43 61  1  0  0  0
 44 62  1  0  0  0
 44 66  1  0  0  0
 45 63  1  0  0  0
 46 64  1  0  0  0
 47 65  1  0  0  0
M  CHG  1  26   1
M  END
> <s_m_entry_id>
39

> <s_m_entry_name>
biosynth_p1.0.sdf.32

> <s_m_Source_Path>
/Users/Sebastito/Downloads

> <s_m_Source_File>
biosynth_p1.0.sdf.gz

> <i_m_Source_File_Index>
32

> <chiral flag>
1

> <version>
0

> <i_m_ct_enhanced_stereo_status>
0

> <s_m_source_file>
ligprep_vs.maegz

> <i_m_source_file_index>
32

> <i_lp_mmshare_version>
37011

> <r_epik_Ionization_Penalty>
1.38

> <r_epik_Ionization_Penalty_Charging>
0.268472

> <r_epik_Ionization_Penalty_Neutral>
1.11152

> <r_epik_State_Penalty>
1.13723

> <r_epik_Charging_Adjusted_Penalty>
1.40571

> <i_epik_Tot_Q>
1

> <i_epik_Tot_abs_Q>
1

> <s_epik_Chemistry_Notes>
This compound contains an acetal/aminal-like group ( X-CH(R)-Y where X, Y are N, S, or O) that may be acid/base labile, releasing an aldehyde.

> <i_f3d_flags>
0

> <s_lp_Force_Field>
OPLS_2005

> <r_lp_Energy>
69.4145

> <b_lp_Chiralities_Consistent>
1

> <s_lp_Variant>
ZINC98231168-4

$$$$
ZINC98231168
                    3D
 Structure written by MMmdl.
 70 71  0  0  1  0            999 V2000
    0.6118   -0.1739   -7.2095 C   0  0  0  0  0  0
   -0.3464    0.8800   -6.6241 C   0  0  2  0  0  0
   -1.3803    0.5430   -6.7277 H   0  0  0  0  0  0
   -0.1793    2.2680   -7.2728 C   0  0  2  0  0  0
    0.8766    2.5444   -7.2712 H   0  0  0  0  0  0
   -1.0093    3.3234   -6.5156 C   0  0  1  0  0  0
   -2.0713    3.1872   -6.7287 H   0  0  0  0  0  0
   -0.7663    3.2695   -4.9910 C   0  0  2  0  0  0
    0.2471    3.6062   -4.7670 H   0  0  0  0  0  0
   -0.8876    1.8057   -4.5136 C   0  0  1  0  0  0
   -1.9100    1.4388   -4.6300 H   0  0  0  0  0  0
   -0.0077    1.0177   -5.2519 O   0  0  0  0  0  0
   -0.5144    1.7853   -3.1734 O   0  0  0  0  0  0
   -1.0645    0.7469   -2.3638 C   0  0  2  0  0  0
   -2.1451    0.6692   -2.4938 H   0  0  0  0  0  0
   -0.7580    1.2270   -0.9237 C   0  0  2  0  0  0
    0.2806    1.5594   -0.9009 H   0  0  0  0  0  0
   -0.8808    0.1912    0.0493 O   0  0  0  0  0  0
   -0.0744   -0.9223   -0.1827 C   0  0  1  0  0  0
   -0.2066   -1.6048    0.6588 H   0  0  0  0  0  0
   -0.5634   -1.5977   -1.4760 C   0  0  1  0  0  0
   -1.6263   -1.7979   -1.3314 H   0  0  0  0  0  0
   -0.3993   -0.6216   -2.6613 C   0  0  1  0  0  0
    0.6544   -0.4925   -2.9133 H   0  0  0  0  0  0
   -1.0939   -1.2128   -3.7442 O   0  0  0  0  0  0
    0.1298   -2.8817   -1.6838 N   0  0  0  0  0  0
    1.2735   -0.5860   -0.3365 O   0  0  0  0  0  0
    2.0765   -0.5383    0.8421 C   0  0  1  0  0  0
    1.9423   -1.5199    1.2979 H   0  0  0  0  0  0
    3.5691   -0.4986    0.4211 C   0  0  1  0  0  0
    4.1787   -0.5902    1.3207 H   0  0  0  0  0  0
    3.9388   -1.6437   -0.5404 C   0  0  0  0  0  0
    5.3403   -1.8062   -0.5897 O   0  0  0  0  0  0
    3.8943    0.7338   -0.1925 O   0  0  0  0  0  0
    1.6083    0.5177    1.8955 C   0  0  1  0  0  0
    0.5471    0.3815    2.1025 H   0  0  0  0  0  0
    2.3684    0.4668    3.2475 C   0  0  2  0  0  0
    2.3028   -0.9081    3.9204 C   0  0  0  0  0  0
    1.2673   -1.5566    4.0598 O   0  0  0  0  0  0
    1.7854    1.4115    4.2187 N   0  3  0  0  0  0
    1.7800    1.8217    1.3741 O   0  0  0  0  0  0
   -1.5961    2.4323   -0.4567 C   0  0  0  0  0  0
   -2.9811    2.2098   -0.6234 O   0  0  0  0  0  0
   -1.7519    4.1113   -4.2886 N   0  0  0  0  0  0
   -0.5895    4.5990   -6.9644 O   0  0  0  0  0  0
   -0.6485    2.2048   -8.6073 O   0  0  0  0  0  0
    0.1358   -1.4718   -6.9231 O   0  0  0  0  0  0
    0.6692   -0.0878   -8.2945 H   0  0  0  0  0  0
    1.6244   -0.0480   -6.8241 H   0  0  0  0  0  0
   -1.9908   -1.3559   -3.4842 H   0  0  0  0  0  0
    1.1238   -2.7260   -1.8444 H   0  0  0  0  0  0
    0.0498   -3.4698   -0.8559 H   0  0  0  0  0  0
    3.5136   -2.5850   -0.1911 H   0  0  0  0  0  0
    3.5469   -1.4680   -1.5432 H   0  0  0  0  0  0
    5.7205   -1.0118   -0.9337 H   0  0  0  0  0  0
    3.6629    1.4354    0.3970 H   0  0  0  0  0  0
    3.2741   -1.2526    4.2758 H   0  0  0  0  0  0
    1.3103    1.8792    0.5550 H   0  0  0  0  0  0
   -1.3867    2.6659    0.5874 H   0  0  0  0  0  0
   -1.3290    3.3151   -1.0384 H   0  0  0  0  0  0
   -3.4434    3.0004   -0.3898 H   0  0  0  0  0  0
   -1.7180    5.0635   -4.6506 H   0  0  0  0  0  0
    0.3317    4.6943   -6.7771 H   0  0  0  0  0  0
   -0.1411    1.5591   -9.0744 H   0  0  0  0  0  0
    0.7493   -2.1020   -7.2681 H   0  0  0  0  0  0
   -2.6955    3.7673   -4.4605 H   0  0  0  0  0  0
    2.3128    1.3830    5.0795 H   0  0  0  0  0  0
    0.8263    1.1534    4.4024 H   0  0  0  0  0  0
    3.4135    0.7372    3.0950 H   0  0  0  0  0  0
    1.8147    2.3448    3.8336 H   0  0  0  0  0  0
  1  2  1  0  0  0
  1 47  1  0  0  0
  1 48  1  0  0  0
  1 49  1  0  0  0
  2  3  1  0  0  0
  2 12  1  0  0  0
  2  4  1  0  0  0
  4  5  1  0  0  0
  4  6  1  0  0  0
  4 46  1  0  0  0
  6  7  1  0  0  0
  6  8  1  0  0  0
  6 45  1  0  0  0
  8  9  1  0  0  0
  8 10  1  0  0  0
  8 44  1  0  0  0
 10 11  1  0  0  0
 10 12  1  0  0  0
 10 13  1  0  0  0
 13 14  1  0  0  0
 14 15  1  0  0  0
 14 23  1  0  0  0
 14 16  1  0  0  0
 16 17  1  0  0  0
 16 18  1  0  0  0
 16 42  1  0  0  0
 18 19  1  0  0  0
 19 20  1  0  0  0
 19 21  1  0  0  0
 19 27  1  0  0  0
 21 22  1  0  0  0
 21 23  1  0  0  0
 21 26  1  0  0  0
 23 24  1  0  0  0
 23 25  1  0  0  0
 25 50  1  0  0  0
 26 51  1  0  0  0
 26 52  1  0  0  0
 27 28  1  0  0  0
 28 29  1  0  0  0
 28 30  1  0  0  0
 28 35  1  0  0  0
 30 31  1  0  0  0
 30 32  1  0  0  0
 30 34  1  0  0  0
 32 33  1  0  0  0
 32 53  1  0  0  0
 32 54  1  0  0  0
 33 55  1  0  0  0
 34 56  1  0  0  0
 35 36  1  0  0  0
 35 37  1  0  0  0
 35 41  1  0  0  0
 37 38  1  0  0  0
 37 40  1  0  0  0
 37 69  1  0  0  0
 38 39  2  0  0  0
 38 57  1  0  0  0
 40 67  1  0  0  0
 40 68  1  0  0  0
 40 70  1  0  0  0
 41 58  1  0  0  0
 42 43  1  0  0  0
 42 59  1  0  0  0
 42 60  1  0  0  0
 43 61  1  0  0  0
 44 62  1  0  0  0
 44 66  1  0  0  0
 45 63  1  0  0  0
 46 64  1  0  0  0
 47 65  1  0  0  0
M  CHG  1  40   1
M  END
> <s_m_entry_id>
39

> <s_m_entry_name>
biosynth_p1.0.sdf.32

> <s_m_Source_Path>
/Users/Sebastito/Downloads

> <s_m_Source_File>
biosynth_p1.0.sdf.gz

> <i_m_Source_File_Index>
32

> <chiral flag>
1

> <version>
0

> <i_m_ct_enhanced_stereo_status>
0

> <s_m_source_file>
ligprep_vs.maegz

> <i_m_source_file_index>
32

> <i_lp_mmshare_version>
37011

> <r_epik_Ionization_Penalty>
4.2582

> <r_epik_Ionization_Penalty_Charging>
0.372387

> <r_epik_Ionization_Penalty_Neutral>
3.88581

> <r_epik_State_Penalty>
1.42276

> <r_epik_Charging_Adjusted_Penalty>
1.79515

> <i_epik_Tot_Q>
1

> <i_epik_Tot_abs_Q>
1

> <s_epik_Chemistry_Notes>
This compound contains an acetal/aminal-like group ( X-CH(R)-Y where X, Y are N, S, or O) that may be acid/base labile, releasing an aldehyde.

> <i_f3d_flags>
0

> <s_lp_Force_Field>
OPLS_2005

> <r_lp_Energy>
75.1773

> <b_lp_Chiralities_Consistent>
1

> <s_lp_Variant>
ZINC98231168-5

$$$$
ZINC98231168
                    3D
 Structure written by MMmdl.
 69 70  0  0  1  0            999 V2000
   -3.8104    1.2056   -6.3193 C   0  0  0  0  0  0
   -3.0064    2.3503   -5.6770 C   0  0  2  0  0  0
   -3.6660    2.9766   -5.0718 H   0  0  0  0  0  0
   -2.2633    3.2145   -6.7140 C   0  0  2  0  0  0
   -1.7029    2.5663   -7.3901 H   0  0  0  0  0  0
   -1.3127    4.2070   -6.0151 C   0  0  1  0  0  0
   -1.8861    5.0131   -5.5532 H   0  0  0  0  0  0
   -0.4236    3.5185   -4.9556 C   0  0  2  0  0  0
    0.3025    2.8700   -5.4482 H   0  0  0  0  0  0
   -1.3044    2.6234   -4.0567 C   0  0  1  0  0  0
   -1.9922    3.2180   -3.4508 H   0  0  0  0  0  0
   -2.0184    1.7388   -4.8623 O   0  0  0  0  0  0
   -0.4471    1.9125   -3.2226 O   0  0  0  0  0  0
   -1.0907    1.1073   -2.2395 C   0  0  2  0  0  0
   -2.1810    1.1745   -2.2719 H   0  0  0  0  0  0
   -0.5977    1.6068   -0.8588 C   0  0  2  0  0  0
    0.4783    1.7801   -0.9003 H   0  0  0  0  0  0
   -0.8533    0.6314    0.1513 O   0  0  0  0  0  0
   -0.2414   -0.6040   -0.0558 C   0  0  1  0  0  0
   -0.4311   -1.2195    0.8253 H   0  0  0  0  0  0
   -0.8993   -1.2481   -1.2892 C   0  0  1  0  0  0
   -1.9710   -1.2797   -1.0878 H   0  0  0  0  0  0
   -0.6495   -0.3480   -2.5151 C   0  0  1  0  0  0
    0.4010   -0.3842   -2.8085 H   0  0  0  0  0  0
   -1.4602   -0.8387   -3.5660 O   0  0  0  0  0  0
   -0.4142   -2.6266   -1.4751 N   0  0  0  0  0  0
    1.1316   -0.4877   -0.2927 O   0  0  0  0  0  0
    2.0037   -0.5286    0.8366 C   0  0  1  0  0  0
    1.7271   -1.4476    1.3532 H   0  0  0  0  0  0
    3.4606   -0.7660    0.3476 C   0  0  1  0  0  0
    4.0955   -0.8071    1.2321 H   0  0  0  0  0  0
    3.6955   -2.0954   -0.3992 C   0  0  0  0  0  0
    2.9611   -2.1807   -1.6045 O   0  0  0  0  0  0
    3.9740    0.3063   -0.4172 O   0  0  0  0  0  0
    1.7835    0.6532    1.8395 C   0  0  1  0  0  0
    0.7247    0.7321    2.0839 H   0  0  0  0  0  0
    2.5715    0.5742    3.1778 C   0  0  2  0  0  0
    2.4272   -0.7927    3.8580 C   0  0  0  0  0  0
    3.1824   -1.7420    3.6572 O   0  0  0  0  0  0
    2.1395    1.6305    4.1089 N   0  0  0  0  0  0
    2.1810    1.8574    1.2117 O   0  0  0  0  0  0
   -1.2780    2.9054   -0.3911 C   0  0  0  0  0  0
   -0.7191    4.0310   -1.0329 O   0  0  0  0  0  0
    0.2681    4.5288   -4.1362 N   0  0  0  0  0  0
   -0.4502    4.7362   -7.0052 O   0  0  0  0  0  0
   -3.2177    3.9533   -7.4534 O   0  0  0  0  0  0
   -4.7401    0.6914   -5.3901 O   0  0  0  0  0  0
   -4.3796    1.5650   -7.1766 H   0  0  0  0  0  0
   -3.1552    0.4111   -6.6782 H   0  0  0  0  0  0
   -1.3359   -0.2827   -4.3202 H   0  0  0  0  0  0
    0.5898   -2.6229   -1.6517 H   0  0  0  0  0  0
   -0.5607   -3.1710   -0.6267 H   0  0  0  0  0  0
    4.7548   -2.2178   -0.6274 H   0  0  0  0  0  0
    3.4127   -2.9351    0.2362 H   0  0  0  0  0  0
    3.1662   -3.0030   -2.0228 H   0  0  0  0  0  0
    3.4785    0.3591   -1.2202 H   0  0  0  0  0  0
    1.5863   -0.8420    4.5504 H   0  0  0  0  0  0
    1.7032    1.9433    0.4008 H   0  0  0  0  0  0
   -2.3551    2.8730   -0.5575 H   0  0  0  0  0  0
   -1.1247    3.0386    0.6803 H   0  0  0  0  0  0
   -1.1455    4.8082   -0.7051 H   0  0  0  0  0  0
    0.8400    4.0770   -3.4238 H   0  0  0  0  0  0
    0.0326    4.0231   -7.3936 H   0  0  0  0  0  0
   -3.7897    3.3471   -7.8985 H   0  0  0  0  0  0
   -4.2631    0.3371   -4.6548 H   0  0  0  0  0  0
    0.8920    5.0892   -4.7149 H   0  0  0  0  0  0
    2.7680    1.6736    4.9099 H   0  0  0  0  0  0
    2.1855    2.5388    3.6487 H   0  0  0  0  0  0
    3.6291    0.7192    2.9550 H   0  0  0  0  0  0
  1  2  1  0  0  0
  1 47  1  0  0  0
  1 48  1  0  0  0
  1 49  1  0  0  0
  2  3  1  0  0  0
  2 12  1  0  0  0
  2  4  1  0  0  0
  4  5  1  0  0  0
  4  6  1  0  0  0
  4 46  1  0  0  0
  6  7  1  0  0  0
  6  8  1  0  0  0
  6 45  1  0  0  0
  8  9  1  0  0  0
  8 10  1  0  0  0
  8 44  1  0  0  0
 10 11  1  0  0  0
 10 12  1  0  0  0
 10 13  1  0  0  0
 13 14  1  0  0  0
 14 15  1  0  0  0
 14 23  1  0  0  0
 14 16  1  0  0  0
 16 17  1  0  0  0
 16 18  1  0  0  0
 16 42  1  0  0  0
 18 19  1  0  0  0
 19 20  1  0  0  0
 19 21  1  0  0  0
 19 27  1  0  0  0
 21 22  1  0  0  0
 21 23  1  0  0  0
 21 26  1  0  0  0
 23 24  1  0  0  0
 23 25  1  0  0  0
 25 50  1  0  0  0
 26 51  1  0  0  0
 26 52  1  0  0  0
 27 28  1  0  0  0
 28 29  1  0  0  0
 28 30  1  0  0  0
 28 35  1  0  0  0
 30 31  1  0  0  0
 30 32  1  0  0  0
 30 34  1  0  0  0
 32 33  1  0  0  0
 32 53  1  0  0  0
 32 54  1  0  0  0
 33 55  1  0  0  0
 34 56  1  0  0  0
 35 36  1  0  0  0
 35 37  1  0  0  0
 35 41  1  0  0  0
 37 38  1  0  0  0
 37 40  1  0  0  0
 37 69  1  0  0  0
 38 39  2  0  0  0
 38 57  1  0  0  0
 40 67  1  0  0  0
 40 68  1  0  0  0
 41 58  1  0  0  0
 42 43  1  0  0  0
 42 59  1  0  0  0
 42 60  1  0  0  0
 43 61  1  0  0  0
 44 62  1  0  0  0
 44 66  1  0  0  0
 45 63  1  0  0  0
 46 64  1  0  0  0
 47 65  1  0  0  0
M  END
> <s_m_entry_id>
39

> <s_m_entry_name>
biosynth_p1.0.sdf.32

> <s_m_Source_Path>
/Users/Sebastito/Downloads

> <s_m_Source_File>
biosynth_p1.0.sdf.gz

> <i_m_Source_File_Index>
32

> <chiral flag>
1

> <version>
0

> <i_m_ct_enhanced_stereo_status>
0

> <s_m_source_file>
ligprep_vs.maegz

> <i_m_source_file_index>
32

> <i_lp_mmshare_version>
37011

> <r_epik_Ionization_Penalty>
1.75103

> <r_epik_Ionization_Penalty_Charging>
0

> <r_epik_Ionization_Penalty_Neutral>
1.75103

> <r_epik_State_Penalty>
1.4979

> <r_epik_Charging_Adjusted_Penalty>
1.4979

> <i_epik_Tot_Q>
0

> <i_epik_Tot_abs_Q>
0

> <s_epik_Chemistry_Notes>
This compound contains an acetal/aminal-like group ( X-CH(R)-Y where X, Y are N, S, or O) that may be acid/base labile, releasing an aldehyde.

> <i_f3d_flags>
0

> <s_lp_Force_Field>
OPLS_2005

> <r_lp_Energy>
78.1225

> <b_lp_Chiralities_Consistent>
1

> <s_lp_Variant>
ZINC98231168-6

$$$$
ZINC98231168
                    3D
 Structure written by MMmdl.
 71 72  0  0  1  0            999 V2000
   -3.6237    0.9989   -6.4984 C   0  0  0  0  0  0
   -2.9309    2.1775   -5.7860 C   0  0  2  0  0  0
   -3.6849    2.6664   -5.1655 H   0  0  0  0  0  0
   -2.2888    3.2292   -6.7191 C   0  0  2  0  0  0
   -1.6046    2.7480   -7.4195 H   0  0  0  0  0  0
   -1.5248    4.2720   -5.8842 C   0  0  1  0  0  0
   -2.2245    4.9033   -5.3333 H   0  0  0  0  0  0
   -0.5561    3.5749   -4.9071 C   0  0  2  0  0  0
    0.2092    3.0241   -5.4565 H   0  0  0  0  0  0
   -1.3548    2.5674   -4.0530 C   0  0  1  0  0  0
   -2.1197    3.0743   -3.4602 H   0  0  0  0  0  0
   -1.9537    1.6377   -4.9034 O   0  0  0  0  0  0
   -0.4530    1.9339   -3.2020 O   0  0  0  0  0  0
   -1.0388    1.0902   -2.2136 C   0  0  2  0  0  0
   -2.1303    1.1379   -2.1963 H   0  0  0  0  0  0
   -0.4862    1.5876   -0.8566 C   0  0  2  0  0  0
    0.5906    1.7361   -0.9544 H   0  0  0  0  0  0
   -0.7533    0.6245    0.1628 O   0  0  0  0  0  0
   -0.1764   -0.6307   -0.0355 C   0  0  1  0  0  0
   -0.4030   -1.2381    0.8426 H   0  0  0  0  0  0
   -0.8326   -1.2576   -1.2777 C   0  0  1  0  0  0
   -1.9047   -1.3211   -1.0834 H   0  0  0  0  0  0
   -0.5749   -0.3538   -2.4993 C   0  0  1  0  0  0
    0.4824   -0.3676   -2.7693 H   0  0  0  0  0  0
   -1.3438   -0.8733   -3.5669 O   0  0  0  0  0  0
   -0.3322   -2.6285   -1.4935 N   0  3  0  0  0  0
    1.2039   -0.5716   -0.2465 O   0  0  0  0  0  0
    2.0469   -0.5883    0.9066 C   0  0  1  0  0  0
    1.6966   -1.4436    1.4841 H   0  0  0  0  0  0
    3.4816   -0.9776    0.4616 C   0  0  1  0  0  0
    4.0981   -1.0822    1.3549 H   0  0  0  0  0  0
    3.5124   -2.3052   -0.3183 C   0  0  0  0  0  0
    4.8246   -2.8235   -0.3543 O   0  0  0  0  0  0
    4.0581    0.0322   -0.3434 O   0  0  0  0  0  0
    1.9033    0.6738    1.8211 C   0  0  1  0  0  0
    0.8513    0.8426    2.0481 H   0  0  0  0  0  0
    2.6829    0.6299    3.1661 C   0  0  2  0  0  0
    2.4637   -0.6832    3.9264 C   0  0  0  0  0  0
    1.3559   -1.1391    4.2054 O   0  0  0  0  0  0
    2.3084    1.7611    4.0323 N   0  0  0  0  0  0
    2.3917    1.8015    1.1202 O   0  0  0  0  0  0
   -1.1415    2.9060   -0.4096 C   0  0  0  0  0  0
   -0.3102    3.5750    0.5134 O   0  0  0  0  0  0
    0.1051    4.5705   -4.0413 N   0  3  0  0  0  0
   -0.7609    5.0751   -6.7638 O   0  0  0  0  0  0
   -3.3169    3.8817   -7.4395 O   0  0  0  0  0  0
   -2.8041    0.4262   -7.4963 O   0  0  0  0  0  0
   -3.9085    0.2311   -5.7784 H   0  0  0  0  0  0
   -4.5425    1.3393   -6.9768 H   0  0  0  0  0  0
   -1.2282   -0.3154   -4.3222 H   0  0  0  0  0  0
    0.6673   -2.6027   -1.6355 H   0  0  0  0  0  0
   -0.7781   -3.0191   -2.3117 H   0  0  0  0  0  0
    2.8828   -3.0486    0.1715 H   0  0  0  0  0  0
    3.1322   -2.1813   -1.3332 H   0  0  0  0  0  0
    5.3854   -2.1876   -0.7731 H   0  0  0  0  0  0
    4.0250    0.8490    0.1325 H   0  0  0  0  0  0
    3.3970   -1.1711    4.2079 H   0  0  0  0  0  0
    2.2698    2.5645    1.6659 H   0  0  0  0  0  0
   -1.2736    3.5777   -1.2571 H   0  0  0  0  0  0
   -2.1285    2.7353    0.0216 H   0  0  0  0  0  0
   -0.2110    3.0297    1.2792 H   0  0  0  0  0  0
   -0.5891    5.0759   -3.5101 H   0  0  0  0  0  0
   -1.3432    5.4502   -7.4078 H   0  0  0  0  0  0
   -3.9191    4.2730   -6.8252 H   0  0  0  0  0  0
   -2.6736    1.0636   -8.1824 H   0  0  0  0  0  0
    0.6231    5.2184   -4.6180 H   0  0  0  0  0  0
    1.3239    1.7019    4.2889 H   0  0  0  0  0  0
    2.8463    1.7413    4.8978 H   0  0  0  0  0  0
   -0.5448   -3.1994   -0.6881 H   0  0  0  0  0  0
    3.7484    0.6981    2.9433 H   0  0  0  0  0  0
    0.7385    4.1006   -3.4101 H   0  0  0  0  0  0
  1  2  1  0  0  0
  1 47  1  0  0  0
  1 48  1  0  0  0
  1 49  1  0  0  0
  2  3  1  0  0  0
  2 12  1  0  0  0
  2  4  1  0  0  0
  4  5  1  0  0  0
  4  6  1  0  0  0
  4 46  1  0  0  0
  6  7  1  0  0  0
  6  8  1  0  0  0
  6 45  1  0  0  0
  8  9  1  0  0  0
  8 10  1  0  0  0
  8 44  1  0  0  0
 10 11  1  0  0  0
 10 12  1  0  0  0
 10 13  1  0  0  0
 13 14  1  0  0  0
 14 15  1  0  0  0
 14 23  1  0  0  0
 14 16  1  0  0  0
 16 17  1  0  0  0
 16 18  1  0  0  0
 16 42  1  0  0  0
 18 19  1  0  0  0
 19 20  1  0  0  0
 19 21  1  0  0  0
 19 27  1  0  0  0
 21 22  1  0  0  0
 21 23  1  0  0  0
 21 26  1  0  0  0
 23 24  1  0  0  0
 23 25  1  0  0  0
 25 50  1  0  0  0
 26 51  1  0  0  0
 26 52  1  0  0  0
 26 69  1  0  0  0
 27 28  1  0  0  0
 28 29  1  0  0  0
 28 30  1  0  0  0
 28 35  1  0  0  0
 30 31  1  0  0  0
 30 32  1  0  0  0
 30 34  1  0  0  0
 32 33  1  0  0  0
 32 53  1  0  0  0
 32 54  1  0  0  0
 33 55  1  0  0  0
 34 56  1  0  0  0
 35 36  1  0  0  0
 35 37  1  0  0  0
 35 41  1  0  0  0
 37 38  1  0  0  0
 37 40  1  0  0  0
 37 70  1  0  0  0
 38 39  2  0  0  0
 38 57  1  0  0  0
 40 67  1  0  0  0
 40 68  1  0  0  0
 41 58  1  0  0  0
 42 43  1  0  0  0
 42 59  1  0  0  0
 42 60  1  0  0  0
 43 61  1  0  0  0
 44 62  1  0  0  0
 44 66  1  0  0  0
 44 71  1  0  0  0
 45 63  1  0  0  0
 46 64  1  0  0  0
 47 65  1  0  0  0
M  CHG  2  26   1  44   1
M  END
> <s_m_entry_id>
40

> <s_m_entry_name>
biosynth_p1.0.sdf.33

> <s_m_Source_Path>
/Users/Sebastito/Downloads

> <s_m_Source_File>
biosynth_p1.0.sdf.gz

> <i_m_Source_File_Index>
33

> <chiral flag>
1

> <version>
0

> <i_m_ct_enhanced_stereo_status>
0

> <s_m_source_file>
ligprep_vs.maegz

> <i_m_source_file_index>
33

> <i_lp_mmshare_version>
37011

> <r_epik_Ionization_Penalty>
0.938878

> <r_epik_Ionization_Penalty_Charging>
0.505476

> <r_epik_Ionization_Penalty_Neutral>
0.433402

> <r_epik_State_Penalty>
0.656471

> <r_epik_Charging_Adjusted_Penalty>
1.16195

> <i_epik_Tot_Q>
2

> <i_epik_Tot_abs_Q>
2

> <s_epik_Chemistry_Notes>
This compound contains an acetal/aminal-like group ( X-CH(R)-Y where X, Y are N, S, or O) that may be acid/base labile, releasing an aldehyde.

> <i_f3d_flags>
0

> <s_lp_Force_Field>
OPLS_2005

> <r_lp_Energy>
67.6103

> <b_lp_Chiralities_Consistent>
1

> <s_lp_Variant>
ZINC98231168-1

$$$$
ZINC98231168
                    3D
 Structure written by MMmdl.
 70 71  0  0  1  0            999 V2000
   -3.8566    1.1828   -6.3435 C   0  0  0  0  0  0
   -3.0981    2.3280   -5.6492 C   0  0  2  0  0  0
   -3.7778    2.8786   -4.9950 H   0  0  0  0  0  0
   -2.4378    3.3029   -6.6497 C   0  0  2  0  0  0
   -1.8624    2.7389   -7.3857 H   0  0  0  0  0  0
   -1.5229    4.2949   -5.9055 C   0  0  1  0  0  0
   -2.1227    4.9927   -5.3181 H   0  0  0  0  0  0
   -0.5424    3.5448   -4.9826 C   0  0  2  0  0  0
    0.1469    2.9355   -5.5698 H   0  0  0  0  0  0
   -1.3530    2.6061   -4.0696 C   0  0  1  0  0  0
   -2.0442    3.1663   -3.4366 H   0  0  0  0  0  0
   -2.0658    1.7230   -4.8782 O   0  0  0  0  0  0
   -0.4461    1.9175   -3.2688 O   0  0  0  0  0  0
   -1.0319    1.0850   -2.2715 C   0  0  2  0  0  0
   -2.1238    1.1292   -2.2605 H   0  0  0  0  0  0
   -0.4938    1.5875   -0.9116 C   0  0  2  0  0  0
    0.5837    1.7359   -0.9994 H   0  0  0  0  0  0
   -0.7790    0.6251    0.1029 O   0  0  0  0  0  0
   -0.1918   -0.6255   -0.0862 C   0  0  1  0  0  0
   -0.4240   -1.2316    0.7912 H   0  0  0  0  0  0
   -0.8328   -1.2636   -1.3330 C   0  0  1  0  0  0
   -1.9074   -1.2905   -1.1466 H   0  0  0  0  0  0
   -0.5668   -0.3603   -2.5538 C   0  0  1  0  0  0
    0.4895   -0.3810   -2.8269 H   0  0  0  0  0  0
   -1.3495   -0.8578   -3.6225 O   0  0  0  0  0  0
   -0.3542   -2.6448   -1.5157 N   0  0  0  0  0  0
    1.1906   -0.5463   -0.2840 O   0  0  0  0  0  0
    2.0182   -0.5870    0.8801 C   0  0  1  0  0  0
    1.6515   -1.4410    1.4491 H   0  0  0  0  0  0
    3.4592   -0.9832    0.4509 C   0  0  1  0  0  0
    4.0698   -1.1209    1.3433 H   0  0  0  0  0  0
    3.5259   -2.2815   -0.3771 C   0  0  0  0  0  0
    3.0736   -3.3872    0.3760 O   0  0  0  0  0  0
    4.0795    0.0435   -0.2962 O   0  0  0  0  0  0
    1.8642    0.6657    1.8043 C   0  0  1  0  0  0
    0.8097    0.8226    2.0302 H   0  0  0  0  0  0
    2.6363    0.6179    3.1529 C   0  0  2  0  0  0
    2.3679   -0.6769    3.9293 C   0  0  0  0  0  0
    3.0345   -1.7026    3.8062 O   0  0  0  0  0  0
    2.2929    1.7728    4.0007 N   0  0  0  0  0  0
    2.3343    1.8050    1.1088 O   0  0  0  0  0  0
   -1.1492    2.9061   -0.4664 C   0  0  0  0  0  0
   -0.3295    3.5572    0.4796 O   0  0  0  0  0  0
    0.2358    4.5002   -4.1711 N   0  3  0  0  0  0
   -0.7667    5.0182   -6.8591 O   0  0  0  0  0  0
   -3.4538    4.0343   -7.3090 O   0  0  0  0  0  0
   -4.7582    0.5881   -5.4342 O   0  0  0  0  0  0
   -4.4453    1.5584   -7.1807 H   0  0  0  0  0  0
   -3.1705    0.4350   -6.7427 H   0  0  0  0  0  0
   -2.2559   -0.8652   -3.3554 H   0  0  0  0  0  0
    0.6533   -2.6518   -1.6683 H   0  0  0  0  0  0
   -0.5257   -3.1934   -0.6744 H   0  0  0  0  0  0
    2.9330   -2.2009   -1.2888 H   0  0  0  0  0  0
    4.5538   -2.4807   -0.6829 H   0  0  0  0  0  0
    3.1529   -4.1648   -0.1553 H   0  0  0  0  0  0
    3.5669    0.1962   -1.0749 H   0  0  0  0  0  0
    1.5258   -0.5990    4.6175 H   0  0  0  0  0  0
    1.7872    1.9346    0.3495 H   0  0  0  0  0  0
   -1.2581    3.5894   -1.3072 H   0  0  0  0  0  0
   -2.1453    2.7362   -0.0562 H   0  0  0  0  0  0
   -0.7738    4.3352    0.7809 H   0  0  0  0  0  0
   -0.3917    5.0578   -3.6100 H   0  0  0  0  0  0
   -0.3647    4.4055   -7.4566 H   0  0  0  0  0  0
   -3.9514    4.5138   -6.6643 H   0  0  0  0  0  0
   -5.2229   -0.1034   -5.8806 H   0  0  0  0  0  0
    0.7645    5.1037   -4.7847 H   0  0  0  0  0  0
    2.9150    1.8159    4.8065 H   0  0  0  0  0  0
    2.4246    2.6387    3.4794 H   0  0  0  0  0  0
    3.7036    0.6537    2.9311 H   0  0  0  0  0  0
    0.8677    3.9920   -3.5684 H   0  0  0  0  0  0
  1  2  1  0  0  0
  1 47  1  0  0  0
  1 48  1  0  0  0
  1 49  1  0  0  0
  2  3  1  0  0  0
  2 12  1  0  0  0
  2  4  1  0  0  0
  4  5  1  0  0  0
  4  6  1  0  0  0
  4 46  1  0  0  0
  6  7  1  0  0  0
  6  8  1  0  0  0
  6 45  1  0  0  0
  8  9  1  0  0  0
  8 10  1  0  0  0
  8 44  1  0  0  0
 10 11  1  0  0  0
 10 12  1  0  0  0
 10 13  1  0  0  0
 13 14  1  0  0  0
 14 15  1  0  0  0
 14 23  1  0  0  0
 14 16  1  0  0  0
 16 17  1  0  0  0
 16 18  1  0  0  0
 16 42  1  0  0  0
 18 19  1  0  0  0
 19 20  1  0  0  0
 19 21  1  0  0  0
 19 27  1  0  0  0
 21 22  1  0  0  0
 21 23  1  0  0  0
 21 26  1  0  0  0
 23 24  1  0  0  0
 23 25  1  0  0  0
 25 50  1  0  0  0
 26 51  1  0  0  0
 26 52  1  0  0  0
 27 28  1  0  0  0
 28 29  1  0  0  0
 28 30  1  0  0  0
 28 35  1  0  0  0
 30 31  1  0  0  0
 30 32  1  0  0  0
 30 34  1  0  0  0
 32 33  1  0  0  0
 32 53  1  0  0  0
 32 54  1  0  0  0
 33 55  1  0  0  0
 34 56  1  0  0  0
 35 36  1  0  0  0
 35 37  1  0  0  0
 35 41  1  0  0  0
 37 38  1  0  0  0
 37 40  1  0  0  0
 37 69  1  0  0  0
 38 39  2  0  0  0
 38 57  1  0  0  0
 40 67  1  0  0  0
 40 68  1  0  0  0
 41 58  1  0  0  0
 42 43  1  0  0  0
 42 59  1  0  0  0
 42 60  1  0  0  0
 43 61  1  0  0  0
 44 62  1  0  0  0
 44 66  1  0  0  0
 44 70  1  0  0  0
 45 63  1  0  0  0
 46 64  1  0  0  0
 47 65  1  0  0  0
M  CHG  1  44   1
M  END
> <s_m_entry_id>
40

> <s_m_entry_name>
biosynth_p1.0.sdf.33

> <s_m_Source_Path>
/Users/Sebastito/Downloads

> <s_m_Source_File>
biosynth_p1.0.sdf.gz

> <i_m_Source_File_Index>
33

> <chiral flag>
1

> <version>
0

> <i_m_ct_enhanced_stereo_status>
0

> <s_m_source_file>
ligprep_vs.maegz

> <i_m_source_file_index>
33

> <i_lp_mmshare_version>
37011

> <r_epik_Ionization_Penalty>
1.24947

> <r_epik_Ionization_Penalty_Charging>
0.216591

> <r_epik_Ionization_Penalty_Neutral>
1.03288

> <r_epik_State_Penalty>
0.980187

> <r_epik_Charging_Adjusted_Penalty>
1.19678

> <i_epik_Tot_Q>
1

> <i_epik_Tot_abs_Q>
1

> <s_epik_Chemistry_Notes>
This compound contains an acetal/aminal-like group ( X-CH(R)-Y where X, Y are N, S, or O) that may be acid/base labile, releasing an aldehyde.

> <i_f3d_flags>
0

> <s_lp_Force_Field>
OPLS_2005

> <r_lp_Energy>
69.1337

> <b_lp_Chiralities_Consistent>
1

> <s_lp_Variant>
ZINC98231168-2

$$$$
ZINC98231168
                    3D
 Structure written by MMmdl.
 71 72  0  0  1  0            999 V2000
   -4.8085    1.3950   -5.1621 C   0  0  0  0  0  0
   -3.6019    2.3436   -5.0476 C   0  0  2  0  0  0
   -3.9021    3.2705   -4.5536 H   0  0  0  0  0  0
   -2.9622    2.6600   -6.4142 C   0  0  2  0  0  0
   -2.7809    1.7287   -6.9535 H   0  0  0  0  0  0
   -1.6430    3.4357   -6.2296 C   0  0  1  0  0  0
   -1.8506    4.4593   -5.9118 H   0  0  0  0  0  0
   -0.7103    2.7461   -5.2098 C   0  0  2  0  0  0
   -0.3616    1.7946   -5.6142 H   0  0  0  0  0  0
   -1.5173    2.4401   -3.9286 C   0  0  1  0  0  0
   -1.8439    3.3564   -3.4318 H   0  0  0  0  0  0
   -2.6253    1.6657   -4.2692 O   0  0  0  0  0  0
   -0.6829    1.7210   -3.0790 O   0  0  0  0  0  0
   -1.2277    1.4379   -1.7949 C   0  0  2  0  0  0
   -2.2717    1.7425   -1.6880 H   0  0  0  0  0  0
   -0.3609    2.1953   -0.7554 C   0  0  2  0  0  0
    0.6900    2.0971   -1.0140 H   0  0  0  0  0  0
   -0.5214    1.6482    0.5511 O   0  0  0  0  0  0
   -0.2223    0.2920    0.6857 C   0  0  1  0  0  0
   -0.3659    0.0517    1.7372 H   0  0  0  0  0  0
   -1.2426   -0.5008   -0.1492 C   0  0  1  0  0  0
   -2.2367   -0.2440    0.2211 H   0  0  0  0  0  0
   -1.1153   -0.0920   -1.6269 C   0  0  1  0  0  0
   -0.1720   -0.4546   -2.0352 H   0  0  0  0  0  0
   -2.1829   -0.6967   -2.3322 O   0  0  0  0  0  0
   -1.0514   -1.9517    0.0382 N   0  3  0  0  0  0
    1.0755   -0.0426    0.2658 O   0  0  0  0  0  0
    2.1578    0.4261    1.0751 C   0  0  1  0  0  0
    1.9051    1.4366    1.4034 H   0  0  0  0  0  0
    2.2800   -0.5033    2.3244 C   0  0  1  0  0  0
    1.3150   -0.5785    2.8206 H   0  0  0  0  0  0
    2.7724   -1.9288    1.9982 C   0  0  0  0  0  0
    2.3142   -2.8427    2.9718 O   0  0  0  0  0  0
    3.1366    0.0785    3.2871 O   0  0  0  0  0  0
    3.4775    0.5181    0.2341 C   0  0  1  0  0  0
    3.8992   -0.4746    0.0776 H   0  0  0  0  0  0
    3.3874    1.2407   -1.1419 C   0  0  2  0  0  0
    2.6187    0.4436   -2.2021 C   0  0  0  0  0  0
    2.6113   -0.7841   -2.2764 O   0  0  0  0  0  0
    4.7262    1.4307   -1.7333 N   0  3  0  0  0  0
    4.4049    1.2659    1.0014 O   0  0  0  0  0  0
   -0.6874    3.6960   -0.6494 C   0  0  0  0  0  0
   -0.0513    4.4263   -1.6761 O   0  0  0  0  0  0
    0.4370    3.6165   -4.8950 N   0  0  0  0  0  0
   -0.9758    3.4497   -7.4782 O   0  0  0  0  0  0
   -3.8572    3.4653   -7.1585 O   0  0  0  0  0  0
   -5.5705    1.4422   -3.9746 O   0  0  0  0  0  0
   -5.4654    1.6995   -5.9771 H   0  0  0  0  0  0
   -4.4920    0.3721   -5.3700 H   0  0  0  0  0  0
   -2.9952   -0.3018   -2.0533 H   0  0  0  0  0  0
   -0.1245   -2.2118   -0.2670 H   0  0  0  0  0  0
   -1.7369   -2.4519   -0.5100 H   0  0  0  0  0  0
    2.3742   -2.2591    1.0383 H   0  0  0  0  0  0
    3.8600   -1.9740    1.9280 H   0  0  0  0  0  0
    2.6818   -3.6936    2.7854 H   0  0  0  0  0  0
    2.7402    0.8762    3.6043 H   0  0  0  0  0  0
    2.0766    1.0828   -2.8994 H   0  0  0  0  0  0
    4.4982    0.8519    1.8474 H   0  0  0  0  0  0
   -1.7628    3.8744   -0.6678 H   0  0  0  0  0  0
   -0.3158    4.0909    0.2968 H   0  0  0  0  0  0
   -0.2495    5.3435   -1.5599 H   0  0  0  0  0  0
    0.9260    3.8700   -5.7527 H   0  0  0  0  0  0
   -0.8371    2.5572   -7.7558 H   0  0  0  0  0  0
   -3.9838    4.2810   -6.6983 H   0  0  0  0  0  0
   -5.0260    1.1518   -3.2594 H   0  0  0  0  0  0
    0.1141    4.4885   -4.4781 H   0  0  0  0  0  0
    4.6450    1.9328   -2.6058 H   0  0  0  0  0  0
    5.1513    0.5298   -1.9001 H   0  0  0  0  0  0
   -1.1640   -2.1868    1.0139 H   0  0  0  0  0  0
    2.9329    2.2235   -1.0169 H   0  0  0  0  0  0
    5.2997    1.9584   -1.0902 H   0  0  0  0  0  0
  1  2  1  0  0  0
  1 47  1  0  0  0
  1 48  1  0  0  0
  1 49  1  0  0  0
  2  3  1  0  0  0
  2 12  1  0  0  0
  2  4  1  0  0  0
  4  5  1  0  0  0
  4  6  1  0  0  0
  4 46  1  0  0  0
  6  7  1  0  0  0
  6  8  1  0  0  0
  6 45  1  0  0  0
  8  9  1  0  0  0
  8 10  1  0  0  0
  8 44  1  0  0  0
 10 11  1  0  0  0
 10 12  1  0  0  0
 10 13  1  0  0  0
 13 14  1  0  0  0
 14 15  1  0  0  0
 14 23  1  0  0  0
 14 16  1  0  0  0
 16 17  1  0  0  0
 16 18  1  0  0  0
 16 42  1  0  0  0
 18 19  1  0  0  0
 19 20  1  0  0  0
 19 21  1  0  0  0
 19 27  1  0  0  0
 21 22  1  0  0  0
 21 23  1  0  0  0
 21 26  1  0  0  0
 23 24  1  0  0  0
 23 25  1  0  0  0
 25 50  1  0  0  0
 26 51  1  0  0  0
 26 52  1  0  0  0
 26 69  1  0  0  0
 27 28  1  0  0  0
 28 29  1  0  0  0
 28 30  1  0  0  0
 28 35  1  0  0  0
 30 31  1  0  0  0
 30 32  1  0  0  0
 30 34  1  0  0  0
 32 33  1  0  0  0
 32 53  1  0  0  0
 32 54  1  0  0  0
 33 55  1  0  0  0
 34 56  1  0  0  0
 35 36  1  0  0  0
 35 37  1  0  0  0
 35 41  1  0  0  0
 37 38  1  0  0  0
 37 40  1  0  0  0
 37 70  1  0  0  0
 38 39  2  0  0  0
 38 57  1  0  0  0
 40 67  1  0  0  0
 40 68  1  0  0  0
 40 71  1  0  0  0
 41 58  1  0  0  0
 42 43  1  0  0  0
 42 59  1  0  0  0
 42 60  1  0  0  0
 43 61  1  0  0  0
 44 62  1  0  0  0
 44 66  1  0  0  0
 45 63  1  0  0  0
 46 64  1  0  0  0
 47 65  1  0  0  0
M  CHG  2  26   1  40   1
M  END
> <s_m_entry_id>
40

> <s_m_entry_name>
biosynth_p1.0.sdf.33

> <s_m_Source_Path>
/Users/Sebastito/Downloads

> <s_m_Source_File>
biosynth_p1.0.sdf.gz

> <i_m_Source_File_Index>
33

> <chiral flag>
1

> <version>
0

> <i_m_ct_enhanced_stereo_status>
0

> <s_m_source_file>
ligprep_vs.maegz

> <i_m_source_file_index>
33

> <i_lp_mmshare_version>
37011

> <r_epik_Ionization_Penalty>
4.02661

> <r_epik_Ionization_Penalty_Charging>
0.657324

> <r_epik_Ionization_Penalty_Neutral>
3.36928

> <r_epik_State_Penalty>
1.08035

> <r_epik_Charging_Adjusted_Penalty>
1.73767

> <i_epik_Tot_Q>
2

> <i_epik_Tot_abs_Q>
2

> <s_epik_Chemistry_Notes>
This compound contains an acetal/aminal-like group ( X-CH(R)-Y where X, Y are N, S, or O) that may be acid/base labile, releasing an aldehyde.

> <i_f3d_flags>
0

> <s_lp_Force_Field>
OPLS_2005

> <r_lp_Energy>
69.9488

> <b_lp_Chiralities_Consistent>
1

> <s_lp_Variant>
ZINC98231168-3

$$$$
ZINC98231168
                    3D
 Structure written by MMmdl.
 70 71  0  0  1  0            999 V2000
   -3.8191    1.1761   -6.3818 C   0  0  0  0  0  0
   -3.0788    2.3353   -5.6907 C   0  0  2  0  0  0
   -3.7699    2.8934   -5.0549 H   0  0  0  0  0  0
   -2.4012    3.2883   -6.6947 C   0  0  2  0  0  0
   -1.8105    2.7063   -7.4045 H   0  0  0  0  0  0
   -1.5050    4.3044   -5.9619 C   0  0  1  0  0  0
   -2.1198    5.0473   -5.4499 H   0  0  0  0  0  0
   -0.5560    3.6194   -4.9541 C   0  0  2  0  0  0
    0.1933    3.0356   -5.4909 H   0  0  0  0  0  0
   -1.3697    2.6410   -4.0796 C   0  0  1  0  0  0
   -2.0811    3.1768   -3.4473 H   0  0  0  0  0  0
   -2.0510    1.7486   -4.9051 O   0  0  0  0  0  0
   -0.4605    1.9481   -3.2843 O   0  0  0  0  0  0
   -1.0433    1.1334   -2.2721 C   0  0  2  0  0  0
   -2.1346    1.1839   -2.2535 H   0  0  0  0  0  0
   -0.4850    1.6475   -0.9226 C   0  0  2  0  0  0
    0.5945    1.7783   -1.0154 H   0  0  0  0  0  0
   -0.7777    0.7031    0.1075 O   0  0  0  0  0  0
   -0.2126   -0.5605   -0.0659 C   0  0  1  0  0  0
   -0.4585   -1.1501    0.8190 H   0  0  0  0  0  0
   -0.8619   -1.2020   -1.3035 C   0  0  1  0  0  0
   -1.9356   -1.2583   -1.1168 H   0  0  0  0  0  0
   -0.5900   -0.3178   -2.5359 C   0  0  1  0  0  0
    0.4693   -0.3453   -2.7969 H   0  0  0  0  0  0
   -1.3531   -0.8425   -3.6065 O   0  0  0  0  0  0
   -0.3618   -2.5770   -1.4915 N   0  3  0  0  0  0
    1.1711   -0.5174   -0.2618 O   0  0  0  0  0  0
    1.9955   -0.5977    0.9014 C   0  0  1  0  0  0
    1.6240   -1.4752    1.4304 H   0  0  0  0  0  0
    3.4404   -0.9853    0.4751 C   0  0  1  0  0  0
    4.0063   -1.2499    1.3685 H   0  0  0  0  0  0
    3.5072   -2.1779   -0.4991 C   0  0  0  0  0  0
    2.9494   -3.3403    0.0772 O   0  0  0  0  0  0
    4.1303    0.0971   -0.1144 O   0  0  0  0  0  0
    1.8309    0.6171    1.8736 C   0  0  1  0  0  0
    0.7763    0.7475    2.1156 H   0  0  0  0  0  0
    2.6288    0.5295    3.2056 C   0  0  2  0  0  0
    2.4587   -0.8282    3.8977 C   0  0  0  0  0  0
    1.3696   -1.3208    4.1885 O   0  0  0  0  0  0
    2.2337    1.6011    4.1365 N   0  0  0  0  0  0
    2.2738    1.7865    1.2130 O   0  0  0  0  0  0
   -1.1193    2.9829   -0.4968 C   0  0  0  0  0  0
   -0.3252    3.6046    0.4908 O   0  0  0  0  0  0
    0.0954    4.6289   -4.1014 N   0  0  0  0  0  0
   -0.7018    4.9373   -6.9405 O   0  0  0  0  0  0
   -3.4052    4.0028   -7.3916 O   0  0  0  0  0  0
   -4.7139    0.5687   -5.4746 O   0  0  0  0  0  0
   -4.4111    1.5403   -7.2215 H   0  0  0  0  0  0
   -3.1206    0.4380   -6.7777 H   0  0  0  0  0  0
   -2.2696   -0.7010   -3.4239 H   0  0  0  0  0  0
    0.6401   -2.5531   -1.6175 H   0  0  0  0  0  0
   -0.7946   -2.9820   -2.3091 H   0  0  0  0  0  0
    2.9909   -1.9577   -1.4341 H   0  0  0  0  0  0
    4.5454   -2.3938   -0.7543 H   0  0  0  0  0  0
    3.1504   -4.0770   -0.4800 H   0  0  0  0  0  0
    3.6216    0.4172   -0.8439 H   0  0  0  0  0  0
    3.4095   -1.3134    4.1181 H   0  0  0  0  0  0
    2.0978    2.5283    1.7723 H   0  0  0  0  0  0
   -1.1681    3.6715   -1.3395 H   0  0  0  0  0  0
   -2.1377    2.8427   -0.1336 H   0  0  0  0  0  0
   -0.7190    4.4337    0.7161 H   0  0  0  0  0  0
    0.7453    4.1812   -3.4567 H   0  0  0  0  0  0
   -1.2722    5.3313   -7.5832 H   0  0  0  0  0  0
   -3.9137    4.4949   -6.7651 H   0  0  0  0  0  0
   -4.2143    0.2160   -4.7547 H   0  0  0  0  0  0
    0.6396    5.2731   -4.6740 H   0  0  0  0  0  0
    1.2496    1.5114    4.3859 H   0  0  0  0  0  0
    2.7711    1.5393    5.0001 H   0  0  0  0  0  0
   -0.5846   -3.1329   -0.6784 H   0  0  0  0  0  0
    3.6885    0.6407    2.9727 H   0  0  0  0  0  0
  1  2  1  0  0  0
  1 47  1  0  0  0
  1 48  1  0  0  0
  1 49  1  0  0  0
  2  3  1  0  0  0
  2 12  1  0  0  0
  2  4  1  0  0  0
  4  5  1  0  0  0
  4  6  1  0  0  0
  4 46  1  0  0  0
  6  7  1  0  0  0
  6  8  1  0  0  0
  6 45  1  0  0  0
  8  9  1  0  0  0
  8 10  1  0  0  0
  8 44  1  0  0  0
 10 11  1  0  0  0
 10 12  1  0  0  0
 10 13  1  0  0  0
 13 14  1  0  0  0
 14 15  1  0  0  0
 14 23  1  0  0  0
 14 16  1  0  0  0
 16 17  1  0  0  0
 16 18  1  0  0  0
 16 42  1  0  0  0
 18 19  1  0  0  0
 19 20  1  0  0  0
 19 21  1  0  0  0
 19 27  1  0  0  0
 21 22  1  0  0  0
 21 23  1  0  0  0
 21 26  1  0  0  0
 23 24  1  0  0  0
 23 25  1  0  0  0
 25 50  1  0  0  0
 26 51  1  0  0  0
 26 52  1  0  0  0
 26 69  1  0  0  0
 27 28  1  0  0  0
 28 29  1  0  0  0
 28 30  1  0  0  0
 28 35  1  0  0  0
 30 31  1  0  0  0
 30 32  1  0  0  0
 30 34  1  0  0  0
 32 33  1  0  0  0
 32 53  1  0  0  0
 32 54  1  0  0  0
 33 55  1  0  0  0
 34 56  1  0  0  0
 35 36  1  0  0  0
 35 37  1  0  0  0
 35 41  1  0  0  0
 37 38  1  0  0  0
 37 40  1  0  0  0
 37 70  1  0  0  0
 38 39  2  0  0  0
 38 57  1  0  0  0
 40 67  1  0  0  0
 40 68  1  0  0  0
 41 58  1  0  0  0
 42 43  1  0  0  0
 42 59  1  0  0  0
 42 60  1  0  0  0
 43 61  1  0  0  0
 44 62  1  0  0  0
 44 66  1  0  0  0
 45 63  1  0  0  0
 46 64  1  0  0  0
 47 65  1  0  0  0
M  CHG  1  26   1
M  END
> <s_m_entry_id>
40

> <s_m_entry_name>
biosynth_p1.0.sdf.33

> <s_m_Source_Path>
/Users/Sebastito/Downloads

> <s_m_Source_File>
biosynth_p1.0.sdf.gz

> <i_m_Source_File_Index>
33

> <chiral flag>
1

> <version>
0

> <i_m_ct_enhanced_stereo_status>
0

> <s_m_source_file>
ligprep_vs.maegz

> <i_m_source_file_index>
33

> <i_lp_mmshare_version>
37011

> <r_epik_Ionization_Penalty>
1.38

> <r_epik_Ionization_Penalty_Charging>
0.268472

> <r_epik_Ionization_Penalty_Neutral>
1.11152

> <r_epik_State_Penalty>
1.13723

> <r_epik_Charging_Adjusted_Penalty>
1.40571

> <i_epik_Tot_Q>
1

> <i_epik_Tot_abs_Q>
1

> <s_epik_Chemistry_Notes>
This compound contains an acetal/aminal-like group ( X-CH(R)-Y where X, Y are N, S, or O) that may be acid/base labile, releasing an aldehyde.

> <i_f3d_flags>
0

> <s_lp_Force_Field>
OPLS_2005

> <r_lp_Energy>
69.4145

> <b_lp_Chiralities_Consistent>
1

> <s_lp_Variant>
ZINC98231168-4

$$$$
ZINC98231168
                    3D
 Structure written by MMmdl.
 70 71  0  0  1  0            999 V2000
    0.6118   -0.1739   -7.2095 C   0  0  0  0  0  0
   -0.3464    0.8800   -6.6241 C   0  0  2  0  0  0
   -1.3803    0.5430   -6.7277 H   0  0  0  0  0  0
   -0.1793    2.2680   -7.2728 C   0  0  2  0  0  0
    0.8766    2.5444   -7.2712 H   0  0  0  0  0  0
   -1.0093    3.3234   -6.5156 C   0  0  1  0  0  0
   -2.0713    3.1872   -6.7287 H   0  0  0  0  0  0
   -0.7663    3.2695   -4.9910 C   0  0  2  0  0  0
    0.2471    3.6062   -4.7670 H   0  0  0  0  0  0
   -0.8876    1.8057   -4.5136 C   0  0  1  0  0  0
   -1.9100    1.4388   -4.6300 H   0  0  0  0  0  0
   -0.0077    1.0177   -5.2519 O   0  0  0  0  0  0
   -0.5144    1.7853   -3.1734 O   0  0  0  0  0  0
   -1.0645    0.7469   -2.3638 C   0  0  2  0  0  0
   -2.1451    0.6692   -2.4938 H   0  0  0  0  0  0
   -0.7580    1.2270   -0.9237 C   0  0  2  0  0  0
    0.2806    1.5594   -0.9009 H   0  0  0  0  0  0
   -0.8808    0.1912    0.0493 O   0  0  0  0  0  0
   -0.0744   -0.9223   -0.1827 C   0  0  1  0  0  0
   -0.2066   -1.6048    0.6588 H   0  0  0  0  0  0
   -0.5634   -1.5977   -1.4760 C   0  0  1  0  0  0
   -1.6263   -1.7979   -1.3314 H   0  0  0  0  0  0
   -0.3993   -0.6216   -2.6613 C   0  0  1  0  0  0
    0.6544   -0.4925   -2.9133 H   0  0  0  0  0  0
   -1.0939   -1.2128   -3.7442 O   0  0  0  0  0  0
    0.1298   -2.8817   -1.6838 N   0  0  0  0  0  0
    1.2735   -0.5860   -0.3365 O   0  0  0  0  0  0
    2.0765   -0.5383    0.8421 C   0  0  1  0  0  0
    1.9423   -1.5199    1.2979 H   0  0  0  0  0  0
    3.5691   -0.4986    0.4211 C   0  0  1  0  0  0
    4.1787   -0.5902    1.3207 H   0  0  0  0  0  0
    3.9388   -1.6437   -0.5404 C   0  0  0  0  0  0
    5.3403   -1.8062   -0.5897 O   0  0  0  0  0  0
    3.8943    0.7338   -0.1925 O   0  0  0  0  0  0
    1.6083    0.5177    1.8955 C   0  0  1  0  0  0
    0.5471    0.3815    2.1025 H   0  0  0  0  0  0
    2.3684    0.4668    3.2475 C   0  0  2  0  0  0
    2.3028   -0.9081    3.9204 C   0  0  0  0  0  0
    1.2673   -1.5566    4.0598 O   0  0  0  0  0  0
    1.7854    1.4115    4.2187 N   0  3  0  0  0  0
    1.7800    1.8217    1.3741 O   0  0  0  0  0  0
   -1.5961    2.4323   -0.4567 C   0  0  0  0  0  0
   -2.9811    2.2098   -0.6234 O   0  0  0  0  0  0
   -1.7519    4.1113   -4.2886 N   0  0  0  0  0  0
   -0.5895    4.5990   -6.9644 O   0  0  0  0  0  0
   -0.6485    2.2048   -8.6073 O   0  0  0  0  0  0
    0.1358   -1.4718   -6.9231 O   0  0  0  0  0  0
    0.6692   -0.0878   -8.2945 H   0  0  0  0  0  0
    1.6244   -0.0480   -6.8241 H   0  0  0  0  0  0
   -1.9908   -1.3559   -3.4842 H   0  0  0  0  0  0
    1.1238   -2.7260   -1.8444 H   0  0  0  0  0  0
    0.0498   -3.4698   -0.8559 H   0  0  0  0  0  0
    3.5136   -2.5850   -0.1911 H   0  0  0  0  0  0
    3.5469   -1.4680   -1.5432 H   0  0  0  0  0  0
    5.7205   -1.0118   -0.9337 H   0  0  0  0  0  0
    3.6629    1.4354    0.3970 H   0  0  0  0  0  0
    3.2741   -1.2526    4.2758 H   0  0  0  0  0  0
    1.3103    1.8792    0.5550 H   0  0  0  0  0  0
   -1.3867    2.6659    0.5874 H   0  0  0  0  0  0
   -1.3290    3.3151   -1.0384 H   0  0  0  0  0  0
   -3.4434    3.0004   -0.3898 H   0  0  0  0  0  0
   -1.7180    5.0635   -4.6506 H   0  0  0  0  0  0
    0.3317    4.6943   -6.7771 H   0  0  0  0  0  0
   -0.1411    1.5591   -9.0744 H   0  0  0  0  0  0
    0.7493   -2.1020   -7.2681 H   0  0  0  0  0  0
   -2.6955    3.7673   -4.4605 H   0  0  0  0  0  0
    2.3128    1.3830    5.0795 H   0  0  0  0  0  0
    0.8263    1.1534    4.4024 H   0  0  0  0  0  0
    3.4135    0.7372    3.0950 H   0  0  0  0  0  0
    1.8147    2.3448    3.8336 H   0  0  0  0  0  0
  1  2  1  0  0  0
  1 47  1  0  0  0
  1 48  1  0  0  0
  1 49  1  0  0  0
  2  3  1  0  0  0
  2 12  1  0  0  0
  2  4  1  0  0  0
  4  5  1  0  0  0
  4  6  1  0  0  0
  4 46  1  0  0  0
  6  7  1  0  0  0
  6  8  1  0  0  0
  6 45  1  0  0  0
  8  9  1  0  0  0
  8 10  1  0  0  0
  8 44  1  0  0  0
 10 11  1  0  0  0
 10 12  1  0  0  0
 10 13  1  0  0  0
 13 14  1  0  0  0
 14 15  1  0  0  0
 14 23  1  0  0  0
 14 16  1  0  0  0
 16 17  1  0  0  0
 16 18  1  0  0  0
 16 42  1  0  0  0
 18 19  1  0  0  0
 19 20  1  0  0  0
 19 21  1  0  0  0
 19 27  1  0  0  0
 21 22  1  0  0  0
 21 23  1  0  0  0
 21 26  1  0  0  0
 23 24  1  0  0  0
 23 25  1  0  0  0
 25 50  1  0  0  0
 26 51  1  0  0  0
 26 52  1  0  0  0
 27 28  1  0  0  0
 28 29  1  0  0  0
 28 30  1  0  0  0
 28 35  1  0  0  0
 30 31  1  0  0  0
 30 32  1  0  0  0
 30 34  1  0  0  0
 32 33  1  0  0  0
 32 53  1  0  0  0
 32 54  1  0  0  0
 33 55  1  0  0  0
 34 56  1  0  0  0
 35 36  1  0  0  0
 35 37  1  0  0  0
 35 41  1  0  0  0
 37 38  1  0  0  0
 37 40  1  0  0  0
 37 69  1  0  0  0
 38 39  2  0  0  0
 38 57  1  0  0  0
 40 67  1  0  0  0
 40 68  1  0  0  0
 40 70  1  0  0  0
 41 58  1  0  0  0
 42 43  1  0  0  0
 42 59  1  0  0  0
 42 60  1  0  0  0
 43 61  1  0  0  0
 44 62  1  0  0  0
 44 66  1  0  0  0
 45 63  1  0  0  0
 46 64  1  0  0  0
 47 65  1  0  0  0
M  CHG  1  40   1
M  END
> <s_m_entry_id>
40

> <s_m_entry_name>
biosynth_p1.0.sdf.33

> <s_m_Source_Path>
/Users/Sebastito/Downloads

> <s_m_Source_File>
biosynth_p1.0.sdf.gz

> <i_m_Source_File_Index>
33

> <chiral flag>
1

> <version>
0

> <i_m_ct_enhanced_stereo_status>
0

> <s_m_source_file>
ligprep_vs.maegz

> <i_m_source_file_index>
33

> <i_lp_mmshare_version>
37011

> <r_epik_Ionization_Penalty>
4.2582

> <r_epik_Ionization_Penalty_Charging>
0.372387

> <r_epik_Ionization_Penalty_Neutral>
3.88581

> <r_epik_State_Penalty>
1.42276

> <r_epik_Charging_Adjusted_Penalty>
1.79515

> <i_epik_Tot_Q>
1

> <i_epik_Tot_abs_Q>
1

> <s_epik_Chemistry_Notes>
This compound contains an acetal/aminal-like group ( X-CH(R)-Y where X, Y are N, S, or O) that may be acid/base labile, releasing an aldehyde.

> <i_f3d_flags>
0

> <s_lp_Force_Field>
OPLS_2005

> <r_lp_Energy>
75.1773

> <b_lp_Chiralities_Consistent>
1

> <s_lp_Variant>
ZINC98231168-5

$$$$
ZINC98231168
                    3D
 Structure written by MMmdl.
 69 70  0  0  1  0            999 V2000
   -3.8104    1.2056   -6.3193 C   0  0  0  0  0  0
   -3.0064    2.3503   -5.6770 C   0  0  2  0  0  0
   -3.6660    2.9766   -5.0718 H   0  0  0  0  0  0
   -2.2633    3.2145   -6.7140 C   0  0  2  0  0  0
   -1.7029    2.5663   -7.3901 H   0  0  0  0  0  0
   -1.3127    4.2070   -6.0151 C   0  0  1  0  0  0
   -1.8861    5.0131   -5.5532 H   0  0  0  0  0  0
   -0.4236    3.5185   -4.9556 C   0  0  2  0  0  0
    0.3025    2.8700   -5.4482 H   0  0  0  0  0  0
   -1.3044    2.6234   -4.0567 C   0  0  1  0  0  0
   -1.9922    3.2180   -3.4508 H   0  0  0  0  0  0
   -2.0184    1.7388   -4.8623 O   0  0  0  0  0  0
   -0.4471    1.9125   -3.2226 O   0  0  0  0  0  0
   -1.0907    1.1073   -2.2395 C   0  0  2  0  0  0
   -2.1810    1.1745   -2.2719 H   0  0  0  0  0  0
   -0.5977    1.6068   -0.8588 C   0  0  2  0  0  0
    0.4783    1.7801   -0.9003 H   0  0  0  0  0  0
   -0.8533    0.6314    0.1513 O   0  0  0  0  0  0
   -0.2414   -0.6040   -0.0558 C   0  0  1  0  0  0
   -0.4311   -1.2195    0.8253 H   0  0  0  0  0  0
   -0.8993   -1.2481   -1.2892 C   0  0  1  0  0  0
   -1.9710   -1.2797   -1.0878 H   0  0  0  0  0  0
   -0.6495   -0.3480   -2.5151 C   0  0  1  0  0  0
    0.4010   -0.3842   -2.8085 H   0  0  0  0  0  0
   -1.4602   -0.8387   -3.5660 O   0  0  0  0  0  0
   -0.4142   -2.6266   -1.4751 N   0  0  0  0  0  0
    1.1316   -0.4877   -0.2927 O   0  0  0  0  0  0
    2.0037   -0.5286    0.8366 C   0  0  1  0  0  0
    1.7271   -1.4476    1.3532 H   0  0  0  0  0  0
    3.4606   -0.7660    0.3476 C   0  0  1  0  0  0
    4.0955   -0.8071    1.2321 H   0  0  0  0  0  0
    3.6955   -2.0954   -0.3992 C   0  0  0  0  0  0
    2.9611   -2.1807   -1.6045 O   0  0  0  0  0  0
    3.9740    0.3063   -0.4172 O   0  0  0  0  0  0
    1.7835    0.6532    1.8395 C   0  0  1  0  0  0
    0.7247    0.7321    2.0839 H   0  0  0  0  0  0
    2.5715    0.5742    3.1778 C   0  0  2  0  0  0
    2.4272   -0.7927    3.8580 C   0  0  0  0  0  0
    3.1824   -1.7420    3.6572 O   0  0  0  0  0  0
    2.1395    1.6305    4.1089 N   0  0  0  0  0  0
    2.1810    1.8574    1.2117 O   0  0  0  0  0  0
   -1.2780    2.9054   -0.3911 C   0  0  0  0  0  0
   -0.7191    4.0310   -1.0329 O   0  0  0  0  0  0
    0.2681    4.5288   -4.1362 N   0  0  0  0  0  0
   -0.4502    4.7362   -7.0052 O   0  0  0  0  0  0
   -3.2177    3.9533   -7.4534 O   0  0  0  0  0  0
   -4.7401    0.6914   -5.3901 O   0  0  0  0  0  0
   -4.3796    1.5650   -7.1766 H   0  0  0  0  0  0
   -3.1552    0.4111   -6.6782 H   0  0  0  0  0  0
   -1.3359   -0.2827   -4.3202 H   0  0  0  0  0  0
    0.5898   -2.6229   -1.6517 H   0  0  0  0  0  0
   -0.5607   -3.1710   -0.6267 H   0  0  0  0  0  0
    4.7548   -2.2178   -0.6274 H   0  0  0  0  0  0
    3.4127   -2.9351    0.2362 H   0  0  0  0  0  0
    3.1662   -3.0030   -2.0228 H   0  0  0  0  0  0
    3.4785    0.3591   -1.2202 H   0  0  0  0  0  0
    1.5863   -0.8420    4.5504 H   0  0  0  0  0  0
    1.7032    1.9433    0.4008 H   0  0  0  0  0  0
   -2.3551    2.8730   -0.5575 H   0  0  0  0  0  0
   -1.1247    3.0386    0.6803 H   0  0  0  0  0  0
   -1.1455    4.8082   -0.7051 H   0  0  0  0  0  0
    0.8400    4.0770   -3.4238 H   0  0  0  0  0  0
    0.0326    4.0231   -7.3936 H   0  0  0  0  0  0
   -3.7897    3.3471   -7.8985 H   0  0  0  0  0  0
   -4.2631    0.3371   -4.6548 H   0  0  0  0  0  0
    0.8920    5.0892   -4.7149 H   0  0  0  0  0  0
    2.7680    1.6736    4.9099 H   0  0  0  0  0  0
    2.1855    2.5388    3.6487 H   0  0  0  0  0  0
    3.6291    0.7192    2.9550 H   0  0  0  0  0  0
  1  2  1  0  0  0
  1 47  1  0  0  0
  1 48  1  0  0  0
  1 49  1  0  0  0
  2  3  1  0  0  0
  2 12  1  0  0  0
  2  4  1  0  0  0
  4  5  1  0  0  0
  4  6  1  0  0  0
  4 46  1  0  0  0
  6  7  1  0  0  0
  6  8  1  0  0  0
  6 45  1  0  0  0
  8  9  1  0  0  0
  8 10  1  0  0  0
  8 44  1  0  0  0
 10 11  1  0  0  0
 10 12  1  0  0  0
 10 13  1  0  0  0
 13 14  1  0  0  0
 14 15  1  0  0  0
 14 23  1  0  0  0
 14 16  1  0  0  0
 16 17  1  0  0  0
 16 18  1  0  0  0
 16 42  1  0  0  0
 18 19  1  0  0  0
 19 20  1  0  0  0
 19 21  1  0  0  0
 19 27  1  0  0  0
 21 22  1  0  0  0
 21 23  1  0  0  0
 21 26  1  0  0  0
 23 24  1  0  0  0
 23 25  1  0  0  0
 25 50  1  0  0  0
 26 51  1  0  0  0
 26 52  1  0  0  0
 27 28  1  0  0  0
 28 29  1  0  0  0
 28 30  1  0  0  0
 28 35  1  0  0  0
 30 31  1  0  0  0
 30 32  1  0  0  0
 30 34  1  0  0  0
 32 33  1  0  0  0
 32 53  1  0  0  0
 32 54  1  0  0  0
 33 55  1  0  0  0
 34 56  1  0  0  0
 35 36  1  0  0  0
 35 37  1  0  0  0
 35 41  1  0  0  0
 37 38  1  0  0  0
 37 40  1  0  0  0
 37 69  1  0  0  0
 38 39  2  0  0  0
 38 57  1  0  0  0
 40 67  1  0  0  0
 40 68  1  0  0  0
 41 58  1  0  0  0
 42 43  1  0  0  0
 42 59  1  0  0  0
 42 60  1  0  0  0
 43 61  1  0  0  0
 44 62  1  0  0  0
 44 66  1  0  0  0
 45 63  1  0  0  0
 46 64  1  0  0  0
 47 65  1  0  0  0
M  END
> <s_m_entry_id>
40

> <s_m_entry_name>
biosynth_p1.0.sdf.33

> <s_m_Source_Path>
/Users/Sebastito/Downloads

> <s_m_Source_File>
biosynth_p1.0.sdf.gz

> <i_m_Source_File_Index>
33

> <chiral flag>
1

> <version>
0

> <i_m_ct_enhanced_stereo_status>
0

> <s_m_source_file>
ligprep_vs.maegz

> <i_m_source_file_index>
33

> <i_lp_mmshare_version>
37011

> <r_epik_Ionization_Penalty>
1.75103

> <r_epik_Ionization_Penalty_Charging>
0

> <r_epik_Ionization_Penalty_Neutral>
1.75103

> <r_epik_State_Penalty>
1.4979

> <r_epik_Charging_Adjusted_Penalty>
1.4979

> <i_epik_Tot_Q>
0

> <i_epik_Tot_abs_Q>
0

> <s_epik_Chemistry_Notes>
This compound contains an acetal/aminal-like group ( X-CH(R)-Y where X, Y are N, S, or O) that may be acid/base labile, releasing an aldehyde.

> <i_f3d_flags>
0

> <s_lp_Force_Field>
OPLS_2005

> <r_lp_Energy>
78.1225

> <b_lp_Chiralities_Consistent>
1

> <s_lp_Variant>
ZINC98231168-6

$$$$
ZINC98231168
                    3D
 Structure written by MMmdl.
 71 72  0  0  1  0            999 V2000
   -3.6237    0.9989   -6.4984 C   0  0  0  0  0  0
   -2.9309    2.1775   -5.7860 C   0  0  2  0  0  0
   -3.6849    2.6664   -5.1655 H   0  0  0  0  0  0
   -2.2888    3.2292   -6.7191 C   0  0  2  0  0  0
   -1.6046    2.7480   -7.4195 H   0  0  0  0  0  0
   -1.5248    4.2720   -5.8842 C   0  0  1  0  0  0
   -2.2245    4.9033   -5.3333 H   0  0  0  0  0  0
   -0.5561    3.5749   -4.9071 C   0  0  2  0  0  0
    0.2092    3.0241   -5.4565 H   0  0  0  0  0  0
   -1.3548    2.5674   -4.0530 C   0  0  1  0  0  0
   -2.1197    3.0743   -3.4602 H   0  0  0  0  0  0
   -1.9537    1.6377   -4.9034 O   0  0  0  0  0  0
   -0.4530    1.9339   -3.2020 O   0  0  0  0  0  0
   -1.0388    1.0902   -2.2136 C   0  0  2  0  0  0
   -2.1303    1.1379   -2.1963 H   0  0  0  0  0  0
   -0.4862    1.5876   -0.8566 C   0  0  2  0  0  0
    0.5906    1.7361   -0.9544 H   0  0  0  0  0  0
   -0.7533    0.6245    0.1628 O   0  0  0  0  0  0
   -0.1764   -0.6307   -0.0355 C   0  0  1  0  0  0
   -0.4030   -1.2381    0.8426 H   0  0  0  0  0  0
   -0.8326   -1.2576   -1.2777 C   0  0  1  0  0  0
   -1.9047   -1.3211   -1.0834 H   0  0  0  0  0  0
   -0.5749   -0.3538   -2.4993 C   0  0  1  0  0  0
    0.4824   -0.3676   -2.7693 H   0  0  0  0  0  0
   -1.3438   -0.8733   -3.5669 O   0  0  0  0  0  0
   -0.3322   -2.6285   -1.4935 N   0  3  0  0  0  0
    1.2039   -0.5716   -0.2465 O   0  0  0  0  0  0
    2.0469   -0.5883    0.9066 C   0  0  1  0  0  0
    1.6966   -1.4436    1.4841 H   0  0  0  0  0  0
    3.4816   -0.9776    0.4616 C   0  0  1  0  0  0
    4.0981   -1.0822    1.3549 H   0  0  0  0  0  0
    3.5124   -2.3052   -0.3183 C   0  0  0  0  0  0
    4.8246   -2.8235   -0.3543 O   0  0  0  0  0  0
    4.0581    0.0322   -0.3434 O   0  0  0  0  0  0
    1.9033    0.6738    1.8211 C   0  0  1  0  0  0
    0.8513    0.8426    2.0481 H   0  0  0  0  0  0
    2.6829    0.6299    3.1661 C   0  0  2  0  0  0
    2.4637   -0.6832    3.9264 C   0  0  0  0  0  0
    1.3559   -1.1391    4.2054 O   0  0  0  0  0  0
    2.3084    1.7611    4.0323 N   0  0  0  0  0  0
    2.3917    1.8015    1.1202 O   0  0  0  0  0  0
   -1.1415    2.9060   -0.4096 C   0  0  0  0  0  0
   -0.3102    3.5750    0.5134 O   0  0  0  0  0  0
    0.1051    4.5705   -4.0413 N   0  3  0  0  0  0
   -0.7609    5.0751   -6.7638 O   0  0  0  0  0  0
   -3.3169    3.8817   -7.4395 O   0  0  0  0  0  0
   -2.8041    0.4262   -7.4963 O   0  0  0  0  0  0
   -3.9085    0.2311   -5.7784 H   0  0  0  0  0  0
   -4.5425    1.3393   -6.9768 H   0  0  0  0  0  0
   -1.2282   -0.3154   -4.3222 H   0  0  0  0  0  0
    0.6673   -2.6027   -1.6355 H   0  0  0  0  0  0
    2.8828   -3.0486    0.1715 H   0  0  0  0  0  0
    3.1322   -2.1813   -1.3332 H   0  0  0  0  0  0
    5.3854   -2.1876   -0.7731 H   0  0  0  0  0  0
    4.0250    0.8490    0.1325 H   0  0  0  0  0  0
    3.3970   -1.1711    4.2079 H   0  0  0  0  0  0
    2.2698    2.5645    1.6659 H   0  0  0  0  0  0
   -1.2736    3.5777   -1.2571 H   0  0  0  0  0  0
   -2.1285    2.7353    0.0216 H   0  0  0  0  0  0
   -0.2110    3.0297    1.2792 H   0  0  0  0  0  0
   -0.5891    5.0759   -3.5101 H   0  0  0  0  0  0
   -1.3432    5.4502   -7.4078 H   0  0  0  0  0  0
   -3.9191    4.2730   -6.8252 H   0  0  0  0  0  0
   -2.6736    1.0636   -8.1824 H   0  0  0  0  0  0
    0.6231    5.2184   -4.6180 H   0  0  0  0  0  0
    1.3239    1.7019    4.2889 H   0  0  0  0  0  0
   -0.7781   -3.0191   -2.3117 H   0  0  0  0  0  0
    2.8463    1.7413    4.8978 H   0  0  0  0  0  0
   -0.5448   -3.1994   -0.6881 H   0  0  0  0  0  0
    3.7484    0.6981    2.9433 H   0  0  0  0  0  0
    0.7385    4.1006   -3.4101 H   0  0  0  0  0  0
  1  2  1  0  0  0
  1 47  1  0  0  0
  1 48  1  0  0  0
  1 49  1  0  0  0
  2  3  1  0  0  0
  2 12  1  0  0  0
  2  4  1  0  0  0
  4  5  1  0  0  0
  4  6  1  0  0  0
  4 46  1  0  0  0
  6  7  1  0  0  0
  6  8  1  0  0  0
  6 45  1  0  0  0
  8  9  1  0  0  0
  8 10  1  0  0  0
  8 44  1  0  0  0
 10 11  1  0  0  0
 10 12  1  0  0  0
 10 13  1  0  0  0
 13 14  1  0  0  0
 14 15  1  0  0  0
 14 23  1  0  0  0
 14 16  1  0  0  0
 16 17  1  0  0  0
 16 18  1  0  0  0
 16 42  1  0  0  0
 18 19  1  0  0  0
 19 20  1  0  0  0
 19 21  1  0  0  0
 19 27  1  0  0  0
 21 22  1  0  0  0
 21 23  1  0  0  0
 21 26  1  0  0  0
 23 24  1  0  0  0
 23 25  1  0  0  0
 25 50  1  0  0  0
 26 51  1  0  0  0
 26 67  1  0  0  0
 26 69  1  0  0  0
 27 28  1  0  0  0
 28 29  1  0  0  0
 28 30  1  0  0  0
 28 35  1  0  0  0
 30 31  1  0  0  0
 30 32  1  0  0  0
 30 34  1  0  0  0
 32 33  1  0  0  0
 32 52  1  0  0  0
 32 53  1  0  0  0
 33 54  1  0  0  0
 34 55  1  0  0  0
 35 36  1  0  0  0
 35 37  1  0  0  0
 35 41  1  0  0  0
 37 38  1  0  0  0
 37 40  1  0  0  0
 37 70  1  0  0  0
 38 39  2  0  0  0
 38 56  1  0  0  0
 40 66  1  0  0  0
 40 68  1  0  0  0
 41 57  1  0  0  0
 42 43  1  0  0  0
 42 58  1  0  0  0
 42 59  1  0  0  0
 43 60  1  0  0  0
 44 61  1  0  0  0
 44 65  1  0  0  0
 44 71  1  0  0  0
 45 62  1  0  0  0
 46 63  1  0  0  0
 47 64  1  0  0  0
M  CHG  2  26   1  44   1
M  END
> <s_m_entry_id>
41

> <s_m_entry_name>
biosynth_p1.0.sdf.34

> <s_m_Source_Path>
/Users/Sebastito/Downloads

> <s_m_Source_File>
biosynth_p1.0.sdf.gz

> <i_m_Source_File_Index>
34

> <chiral flag>
1

> <version>
0

> <i_m_ct_enhanced_stereo_status>
0

> <s_m_source_file>
ligprep_vs.maegz

> <i_m_source_file_index>
34

> <i_lp_mmshare_version>
37011

> <r_epik_Ionization_Penalty>
0.938878

> <r_epik_Ionization_Penalty_Charging>
0.505476

> <r_epik_Ionization_Penalty_Neutral>
0.433402

> <r_epik_State_Penalty>
0.656471

> <r_epik_Charging_Adjusted_Penalty>
1.16195

> <i_epik_Tot_Q>
2

> <i_epik_Tot_abs_Q>
2

> <s_epik_Chemistry_Notes>
This compound contains an acetal/aminal-like group ( X-CH(R)-Y where X, Y are N, S, or O) that may be acid/base labile, releasing an aldehyde.

> <i_f3d_flags>
0

> <s_lp_Force_Field>
OPLS_2005

> <r_lp_Energy>
67.6103

> <b_lp_Chiralities_Consistent>
1

> <s_lp_Variant>
ZINC98231168-1

$$$$
ZINC98231168
                    3D
 Structure written by MMmdl.
 70 71  0  0  1  0            999 V2000
   -3.8566    1.1828   -6.3435 C   0  0  0  0  0  0
   -3.0981    2.3280   -5.6492 C   0  0  2  0  0  0
   -3.7778    2.8786   -4.9950 H   0  0  0  0  0  0
   -2.4378    3.3029   -6.6497 C   0  0  2  0  0  0
   -1.8624    2.7389   -7.3857 H   0  0  0  0  0  0
   -1.5229    4.2949   -5.9055 C   0  0  1  0  0  0
   -2.1227    4.9927   -5.3181 H   0  0  0  0  0  0
   -0.5424    3.5448   -4.9826 C   0  0  2  0  0  0
    0.1469    2.9355   -5.5698 H   0  0  0  0  0  0
   -1.3530    2.6061   -4.0696 C   0  0  1  0  0  0
   -2.0442    3.1663   -3.4366 H   0  0  0  0  0  0
   -2.0658    1.7230   -4.8782 O   0  0  0  0  0  0
   -0.4461    1.9175   -3.2688 O   0  0  0  0  0  0
   -1.0319    1.0850   -2.2715 C   0  0  2  0  0  0
   -2.1238    1.1292   -2.2605 H   0  0  0  0  0  0
   -0.4938    1.5875   -0.9116 C   0  0  2  0  0  0
    0.5837    1.7359   -0.9994 H   0  0  0  0  0  0
   -0.7790    0.6251    0.1029 O   0  0  0  0  0  0
   -0.1918   -0.6255   -0.0862 C   0  0  1  0  0  0
   -0.4240   -1.2316    0.7912 H   0  0  0  0  0  0
   -0.8328   -1.2636   -1.3330 C   0  0  1  0  0  0
   -1.9074   -1.2905   -1.1466 H   0  0  0  0  0  0
   -0.5668   -0.3603   -2.5538 C   0  0  1  0  0  0
    0.4895   -0.3810   -2.8269 H   0  0  0  0  0  0
   -1.3495   -0.8578   -3.6225 O   0  0  0  0  0  0
   -0.3542   -2.6448   -1.5157 N   0  0  0  0  0  0
    1.1906   -0.5463   -0.2840 O   0  0  0  0  0  0
    2.0182   -0.5870    0.8801 C   0  0  1  0  0  0
    1.6515   -1.4410    1.4491 H   0  0  0  0  0  0
    3.4592   -0.9832    0.4509 C   0  0  1  0  0  0
    4.0698   -1.1209    1.3433 H   0  0  0  0  0  0
    3.5259   -2.2815   -0.3771 C   0  0  0  0  0  0
    3.0736   -3.3872    0.3760 O   0  0  0  0  0  0
    4.0795    0.0435   -0.2962 O   0  0  0  0  0  0
    1.8642    0.6657    1.8043 C   0  0  1  0  0  0
    0.8097    0.8226    2.0302 H   0  0  0  0  0  0
    2.6363    0.6179    3.1529 C   0  0  2  0  0  0
    2.3679   -0.6769    3.9293 C   0  0  0  0  0  0
    3.0345   -1.7026    3.8062 O   0  0  0  0  0  0
    2.2929    1.7728    4.0007 N   0  0  0  0  0  0
    2.3343    1.8050    1.1088 O   0  0  0  0  0  0
   -1.1492    2.9061   -0.4664 C   0  0  0  0  0  0
   -0.3295    3.5572    0.4796 O   0  0  0  0  0  0
    0.2358    4.5002   -4.1711 N   0  3  0  0  0  0
   -0.7667    5.0182   -6.8591 O   0  0  0  0  0  0
   -3.4538    4.0343   -7.3090 O   0  0  0  0  0  0
   -4.7582    0.5881   -5.4342 O   0  0  0  0  0  0
   -4.4453    1.5584   -7.1807 H   0  0  0  0  0  0
   -3.1705    0.4350   -6.7427 H   0  0  0  0  0  0
   -2.2559   -0.8652   -3.3554 H   0  0  0  0  0  0
    0.6533   -2.6518   -1.6683 H   0  0  0  0  0  0
    2.9330   -2.2009   -1.2888 H   0  0  0  0  0  0
    4.5538   -2.4807   -0.6829 H   0  0  0  0  0  0
    3.1529   -4.1648   -0.1553 H   0  0  0  0  0  0
    3.5669    0.1962   -1.0749 H   0  0  0  0  0  0
    1.5258   -0.5990    4.6175 H   0  0  0  0  0  0
    1.7872    1.9346    0.3495 H   0  0  0  0  0  0
   -1.2581    3.5894   -1.3072 H   0  0  0  0  0  0
   -2.1453    2.7362   -0.0562 H   0  0  0  0  0  0
   -0.7738    4.3352    0.7809 H   0  0  0  0  0  0
   -0.3917    5.0578   -3.6100 H   0  0  0  0  0  0
   -0.3647    4.4055   -7.4566 H   0  0  0  0  0  0
   -3.9514    4.5138   -6.6643 H   0  0  0  0  0  0
   -5.2229   -0.1034   -5.8806 H   0  0  0  0  0  0
    0.7645    5.1037   -4.7847 H   0  0  0  0  0  0
    2.9150    1.8159    4.8065 H   0  0  0  0  0  0
   -0.5257   -3.1934   -0.6744 H   0  0  0  0  0  0
    2.4246    2.6387    3.4794 H   0  0  0  0  0  0
    3.7036    0.6537    2.9311 H   0  0  0  0  0  0
    0.8677    3.9920   -3.5684 H   0  0  0  0  0  0
  1  2  1  0  0  0
  1 47  1  0  0  0
  1 48  1  0  0  0
  1 49  1  0  0  0
  2  3  1  0  0  0
  2 12  1  0  0  0
  2  4  1  0  0  0
  4  5  1  0  0  0
  4  6  1  0  0  0
  4 46  1  0  0  0
  6  7  1  0  0  0
  6  8  1  0  0  0
  6 45  1  0  0  0
  8  9  1  0  0  0
  8 10  1  0  0  0
  8 44  1  0  0  0
 10 11  1  0  0  0
 10 12  1  0  0  0
 10 13  1  0  0  0
 13 14  1  0  0  0
 14 15  1  0  0  0
 14 23  1  0  0  0
 14 16  1  0  0  0
 16 17  1  0  0  0
 16 18  1  0  0  0
 16 42  1  0  0  0
 18 19  1  0  0  0
 19 20  1  0  0  0
 19 21  1  0  0  0
 19 27  1  0  0  0
 21 22  1  0  0  0
 21 23  1  0  0  0
 21 26  1  0  0  0
 23 24  1  0  0  0
 23 25  1  0  0  0
 25 50  1  0  0  0
 26 51  1  0  0  0
 26 67  1  0  0  0
 27 28  1  0  0  0
 28 29  1  0  0  0
 28 30  1  0  0  0
 28 35  1  0  0  0
 30 31  1  0  0  0
 30 32  1  0  0  0
 30 34  1  0  0  0
 32 33  1  0  0  0
 32 52  1  0  0  0
 32 53  1  0  0  0
 33 54  1  0  0  0
 34 55  1  0  0  0
 35 36  1  0  0  0
 35 37  1  0  0  0
 35 41  1  0  0  0
 37 38  1  0  0  0
 37 40  1  0  0  0
 37 69  1  0  0  0
 38 39  2  0  0  0
 38 56  1  0  0  0
 40 66  1  0  0  0
 40 68  1  0  0  0
 41 57  1  0  0  0
 42 43  1  0  0  0
 42 58  1  0  0  0
 42 59  1  0  0  0
 43 60  1  0  0  0
 44 61  1  0  0  0
 44 65  1  0  0  0
 44 70  1  0  0  0
 45 62  1  0  0  0
 46 63  1  0  0  0
 47 64  1  0  0  0
M  CHG  1  44   1
M  END
> <s_m_entry_id>
41

> <s_m_entry_name>
biosynth_p1.0.sdf.34

> <s_m_Source_Path>
/Users/Sebastito/Downloads

> <s_m_Source_File>
biosynth_p1.0.sdf.gz

> <i_m_Source_File_Index>
34

> <chiral flag>
1

> <version>
0

> <i_m_ct_enhanced_stereo_status>
0

> <s_m_source_file>
ligprep_vs.maegz

> <i_m_source_file_index>
34

> <i_lp_mmshare_version>
37011

> <r_epik_Ionization_Penalty>
1.24947

> <r_epik_Ionization_Penalty_Charging>
0.216591

> <r_epik_Ionization_Penalty_Neutral>
1.03288

> <r_epik_State_Penalty>
0.980187

> <r_epik_Charging_Adjusted_Penalty>
1.19678

> <i_epik_Tot_Q>
1

> <i_epik_Tot_abs_Q>
1

> <s_epik_Chemistry_Notes>
This compound contains an acetal/aminal-like group ( X-CH(R)-Y where X, Y are N, S, or O) that may be acid/base labile, releasing an aldehyde.

> <i_f3d_flags>
0

> <s_lp_Force_Field>
OPLS_2005

> <r_lp_Energy>
69.1337

> <b_lp_Chiralities_Consistent>
1

> <s_lp_Variant>
ZINC98231168-2

$$$$
ZINC98231168
                    3D
 Structure written by MMmdl.
 71 72  0  0  1  0            999 V2000
   -4.8085    1.3950   -5.1621 C   0  0  0  0  0  0
   -3.6019    2.3436   -5.0476 C   0  0  2  0  0  0
   -3.9021    3.2705   -4.5536 H   0  0  0  0  0  0
   -2.9622    2.6600   -6.4142 C   0  0  2  0  0  0
   -2.7809    1.7287   -6.9535 H   0  0  0  0  0  0
   -1.6430    3.4357   -6.2296 C   0  0  1  0  0  0
   -1.8506    4.4593   -5.9118 H   0  0  0  0  0  0
   -0.7103    2.7461   -5.2098 C   0  0  2  0  0  0
   -0.3616    1.7946   -5.6142 H   0  0  0  0  0  0
   -1.5173    2.4401   -3.9286 C   0  0  1  0  0  0
   -1.8439    3.3564   -3.4318 H   0  0  0  0  0  0
   -2.6253    1.6657   -4.2692 O   0  0  0  0  0  0
   -0.6829    1.7210   -3.0790 O   0  0  0  0  0  0
   -1.2277    1.4379   -1.7949 C   0  0  2  0  0  0
   -2.2717    1.7425   -1.6880 H   0  0  0  0  0  0
   -0.3609    2.1953   -0.7554 C   0  0  2  0  0  0
    0.6900    2.0971   -1.0140 H   0  0  0  0  0  0
   -0.5214    1.6482    0.5511 O   0  0  0  0  0  0
   -0.2223    0.2920    0.6857 C   0  0  1  0  0  0
   -0.3659    0.0517    1.7372 H   0  0  0  0  0  0
   -1.2426   -0.5008   -0.1492 C   0  0  1  0  0  0
   -2.2367   -0.2440    0.2211 H   0  0  0  0  0  0
   -1.1153   -0.0920   -1.6269 C   0  0  1  0  0  0
   -0.1720   -0.4546   -2.0352 H   0  0  0  0  0  0
   -2.1829   -0.6967   -2.3322 O   0  0  0  0  0  0
   -1.0514   -1.9517    0.0382 N   0  3  0  0  0  0
    1.0755   -0.0426    0.2658 O   0  0  0  0  0  0
    2.1578    0.4261    1.0751 C   0  0  1  0  0  0
    1.9051    1.4366    1.4034 H   0  0  0  0  0  0
    2.2800   -0.5033    2.3244 C   0  0  1  0  0  0
    1.3150   -0.5785    2.8206 H   0  0  0  0  0  0
    2.7724   -1.9288    1.9982 C   0  0  0  0  0  0
    2.3142   -2.8427    2.9718 O   0  0  0  0  0  0
    3.1366    0.0785    3.2871 O   0  0  0  0  0  0
    3.4775    0.5181    0.2341 C   0  0  1  0  0  0
    3.8992   -0.4746    0.0776 H   0  0  0  0  0  0
    3.3874    1.2407   -1.1419 C   0  0  2  0  0  0
    2.6187    0.4436   -2.2021 C   0  0  0  0  0  0
    2.6113   -0.7841   -2.2764 O   0  0  0  0  0  0
    4.7262    1.4307   -1.7333 N   0  3  0  0  0  0
    4.4049    1.2659    1.0014 O   0  0  0  0  0  0
   -0.6874    3.6960   -0.6494 C   0  0  0  0  0  0
   -0.0513    4.4263   -1.6761 O   0  0  0  0  0  0
    0.4370    3.6165   -4.8950 N   0  0  0  0  0  0
   -0.9758    3.4497   -7.4782 O   0  0  0  0  0  0
   -3.8572    3.4653   -7.1585 O   0  0  0  0  0  0
   -5.5705    1.4422   -3.9746 O   0  0  0  0  0  0
   -5.4654    1.6995   -5.9771 H   0  0  0  0  0  0
   -4.4920    0.3721   -5.3700 H   0  0  0  0  0  0
   -2.9952   -0.3018   -2.0533 H   0  0  0  0  0  0
   -0.1245   -2.2118   -0.2670 H   0  0  0  0  0  0
    2.3742   -2.2591    1.0383 H   0  0  0  0  0  0
    3.8600   -1.9740    1.9280 H   0  0  0  0  0  0
    2.6818   -3.6936    2.7854 H   0  0  0  0  0  0
    2.7402    0.8762    3.6043 H   0  0  0  0  0  0
    2.0766    1.0828   -2.8994 H   0  0  0  0  0  0
    4.4982    0.8519    1.8474 H   0  0  0  0  0  0
   -1.7628    3.8744   -0.6678 H   0  0  0  0  0  0
   -0.3158    4.0909    0.2968 H   0  0  0  0  0  0
   -0.2495    5.3435   -1.5599 H   0  0  0  0  0  0
    0.9260    3.8700   -5.7527 H   0  0  0  0  0  0
   -0.8371    2.5572   -7.7558 H   0  0  0  0  0  0
   -3.9838    4.2810   -6.6983 H   0  0  0  0  0  0
   -5.0260    1.1518   -3.2594 H   0  0  0  0  0  0
    0.1141    4.4885   -4.4781 H   0  0  0  0  0  0
    4.6450    1.9328   -2.6058 H   0  0  0  0  0  0
   -1.7369   -2.4519   -0.5100 H   0  0  0  0  0  0
    5.1513    0.5298   -1.9001 H   0  0  0  0  0  0
   -1.1640   -2.1868    1.0139 H   0  0  0  0  0  0
    2.9329    2.2235   -1.0169 H   0  0  0  0  0  0
    5.2997    1.9584   -1.0902 H   0  0  0  0  0  0
  1  2  1  0  0  0
  1 47  1  0  0  0
  1 48  1  0  0  0
  1 49  1  0  0  0
  2  3  1  0  0  0
  2 12  1  0  0  0
  2  4  1  0  0  0
  4  5  1  0  0  0
  4  6  1  0  0  0
  4 46  1  0  0  0
  6  7  1  0  0  0
  6  8  1  0  0  0
  6 45  1  0  0  0
  8  9  1  0  0  0
  8 10  1  0  0  0
  8 44  1  0  0  0
 10 11  1  0  0  0
 10 12  1  0  0  0
 10 13  1  0  0  0
 13 14  1  0  0  0
 14 15  1  0  0  0
 14 23  1  0  0  0
 14 16  1  0  0  0
 16 17  1  0  0  0
 16 18  1  0  0  0
 16 42  1  0  0  0
 18 19  1  0  0  0
 19 20  1  0  0  0
 19 21  1  0  0  0
 19 27  1  0  0  0
 21 22  1  0  0  0
 21 23  1  0  0  0
 21 26  1  0  0  0
 23 24  1  0  0  0
 23 25  1  0  0  0
 25 50  1  0  0  0
 26 51  1  0  0  0
 26 67  1  0  0  0
 26 69  1  0  0  0
 27 28  1  0  0  0
 28 29  1  0  0  0
 28 30  1  0  0  0
 28 35  1  0  0  0
 30 31  1  0  0  0
 30 32  1  0  0  0
 30 34  1  0  0  0
 32 33  1  0  0  0
 32 52  1  0  0  0
 32 53  1  0  0  0
 33 54  1  0  0  0
 34 55  1  0  0  0
 35 36  1  0  0  0
 35 37  1  0  0  0
 35 41  1  0  0  0
 37 38  1  0  0  0
 37 40  1  0  0  0
 37 70  1  0  0  0
 38 39  2  0  0  0
 38 56  1  0  0  0
 40 66  1  0  0  0
 40 68  1  0  0  0
 40 71  1  0  0  0
 41 57  1  0  0  0
 42 43  1  0  0  0
 42 58  1  0  0  0
 42 59  1  0  0  0
 43 60  1  0  0  0
 44 61  1  0  0  0
 44 65  1  0  0  0
 45 62  1  0  0  0
 46 63  1  0  0  0
 47 64  1  0  0  0
M  CHG  2  26   1  40   1
M  END
> <s_m_entry_id>
41

> <s_m_entry_name>
biosynth_p1.0.sdf.34

> <s_m_Source_Path>
/Users/Sebastito/Downloads

> <s_m_Source_File>
biosynth_p1.0.sdf.gz

> <i_m_Source_File_Index>
34

> <chiral flag>
1

> <version>
0

> <i_m_ct_enhanced_stereo_status>
0

> <s_m_source_file>
ligprep_vs.maegz

> <i_m_source_file_index>
34

> <i_lp_mmshare_version>
37011

> <r_epik_Ionization_Penalty>
4.02661

> <r_epik_Ionization_Penalty_Charging>
0.657324

> <r_epik_Ionization_Penalty_Neutral>
3.36928

> <r_epik_State_Penalty>
1.08035

> <r_epik_Charging_Adjusted_Penalty>
1.73767

> <i_epik_Tot_Q>
2

> <i_epik_Tot_abs_Q>
2

> <s_epik_Chemistry_Notes>
This compound contains an acetal/aminal-like group ( X-CH(R)-Y where X, Y are N, S, or O) that may be acid/base labile, releasing an aldehyde.

> <i_f3d_flags>
0

> <s_lp_Force_Field>
OPLS_2005

> <r_lp_Energy>
69.9488

> <b_lp_Chiralities_Consistent>
1

> <s_lp_Variant>
ZINC98231168-3

$$$$
ZINC98231168
                    3D
 Structure written by MMmdl.
 70 71  0  0  1  0            999 V2000
   -3.8191    1.1761   -6.3818 C   0  0  0  0  0  0
   -3.0788    2.3353   -5.6907 C   0  0  2  0  0  0
   -3.7699    2.8934   -5.0549 H   0  0  0  0  0  0
   -2.4012    3.2882   -6.6947 C   0  0  2  0  0  0
   -1.8105    2.7063   -7.4045 H   0  0  0  0  0  0
   -1.5050    4.3044   -5.9619 C   0  0  1  0  0  0
   -2.1198    5.0473   -5.4499 H   0  0  0  0  0  0
   -0.5560    3.6193   -4.9542 C   0  0  2  0  0  0
    0.1933    3.0356   -5.4910 H   0  0  0  0  0  0
   -1.3697    2.6410   -4.0796 C   0  0  1  0  0  0
   -2.0811    3.1768   -3.4473 H   0  0  0  0  0  0
   -2.0510    1.7486   -4.9051 O   0  0  0  0  0  0
   -0.4604    1.9481   -3.2843 O   0  0  0  0  0  0
   -1.0433    1.1335   -2.2721 C   0  0  2  0  0  0
   -2.1346    1.1839   -2.2535 H   0  0  0  0  0  0
   -0.4850    1.6476   -0.9226 C   0  0  2  0  0  0
    0.5945    1.7783   -1.0154 H   0  0  0  0  0  0
   -0.7777    0.7031    0.1075 O   0  0  0  0  0  0
   -0.2126   -0.5604   -0.0659 C   0  0  1  0  0  0
   -0.4585   -1.1500    0.8191 H   0  0  0  0  0  0
   -0.8619   -1.2020   -1.3035 C   0  0  1  0  0  0
   -1.9356   -1.2583   -1.1168 H   0  0  0  0  0  0
   -0.5900   -0.3178   -2.5359 C   0  0  1  0  0  0
    0.4693   -0.3453   -2.7969 H   0  0  0  0  0  0
   -1.3531   -0.8425   -3.6065 O   0  0  0  0  0  0
   -0.3618   -2.5770   -1.4915 N   0  3  0  0  0  0
    1.1711   -0.5174   -0.2618 O   0  0  0  0  0  0
    1.9955   -0.5977    0.9014 C   0  0  1  0  0  0
    1.6240   -1.4752    1.4304 H   0  0  0  0  0  0
    3.4404   -0.9852    0.4751 C   0  0  1  0  0  0
    4.0063   -1.2499    1.3685 H   0  0  0  0  0  0
    3.5072   -2.1779   -0.4992 C   0  0  0  0  0  0
    2.9494   -3.3403    0.0772 O   0  0  0  0  0  0
    4.1303    0.0971   -0.1144 O   0  0  0  0  0  0
    1.8308    0.6171    1.8736 C   0  0  1  0  0  0
    0.7763    0.7475    2.1157 H   0  0  0  0  0  0
    2.6288    0.5295    3.2057 C   0  0  2  0  0  0
    2.4587   -0.8283    3.8977 C   0  0  0  0  0  0
    1.3696   -1.3209    4.1885 O   0  0  0  0  0  0
    2.2336    1.6010    4.1366 N   0  0  0  0  0  0
    2.2738    1.7865    1.2130 O   0  0  0  0  0  0
   -1.1192    2.9830   -0.4968 C   0  0  0  0  0  0
   -0.3252    3.6046    0.4908 O   0  0  0  0  0  0
    0.0954    4.6289   -4.1014 N   0  0  0  0  0  0
   -0.7018    4.9372   -6.9406 O   0  0  0  0  0  0
   -3.4053    4.0028   -7.3916 O   0  0  0  0  0  0
   -4.7139    0.5687   -5.4746 O   0  0  0  0  0  0
   -4.4111    1.5403   -7.2215 H   0  0  0  0  0  0
   -3.1206    0.4380   -6.7777 H   0  0  0  0  0  0
   -2.2696   -0.7010   -3.4239 H   0  0  0  0  0  0
    0.6401   -2.5531   -1.6175 H   0  0  0  0  0  0
    2.9909   -1.9577   -1.4341 H   0  0  0  0  0  0
    4.5454   -2.3938   -0.7543 H   0  0  0  0  0  0
    3.1504   -4.0769   -0.4801 H   0  0  0  0  0  0
    3.6216    0.4173   -0.8439 H   0  0  0  0  0  0
    3.4095   -1.3135    4.1180 H   0  0  0  0  0  0
    2.0978    2.5283    1.7723 H   0  0  0  0  0  0
   -1.1680    3.6716   -1.3395 H   0  0  0  0  0  0
   -2.1377    2.8427   -0.1336 H   0  0  0  0  0  0
   -0.7190    4.4337    0.7161 H   0  0  0  0  0  0
    0.7453    4.1812   -3.4567 H   0  0  0  0  0  0
   -1.2722    5.3312   -7.5832 H   0  0  0  0  0  0
   -3.9137    4.4949   -6.7651 H   0  0  0  0  0  0
   -4.2143    0.2160   -4.7547 H   0  0  0  0  0  0
    0.6396    5.2731   -4.6740 H   0  0  0  0  0  0
    1.2496    1.5114    4.3859 H   0  0  0  0  0  0
   -0.7946   -2.9820   -2.3091 H   0  0  0  0  0  0
    2.7710    1.5393    5.0002 H   0  0  0  0  0  0
   -0.5846   -3.1329   -0.6784 H   0  0  0  0  0  0
    3.6885    0.6406    2.9727 H   0  0  0  0  0  0
  1  2  1  0  0  0
  1 47  1  0  0  0
  1 48  1  0  0  0
  1 49  1  0  0  0
  2  3  1  0  0  0
  2 12  1  0  0  0
  2  4  1  0  0  0
  4  5  1  0  0  0
  4  6  1  0  0  0
  4 46  1  0  0  0
  6  7  1  0  0  0
  6  8  1  0  0  0
  6 45  1  0  0  0
  8  9  1  0  0  0
  8 10  1  0  0  0
  8 44  1  0  0  0
 10 11  1  0  0  0
 10 12  1  0  0  0
 10 13  1  0  0  0
 13 14  1  0  0  0
 14 15  1  0  0  0
 14 23  1  0  0  0
 14 16  1  0  0  0
 16 17  1  0  0  0
 16 18  1  0  0  0
 16 42  1  0  0  0
 18 19  1  0  0  0
 19 20  1  0  0  0
 19 21  1  0  0  0
 19 27  1  0  0  0
 21 22  1  0  0  0
 21 23  1  0  0  0
 21 26  1  0  0  0
 23 24  1  0  0  0
 23 25  1  0  0  0
 25 50  1  0  0  0
 26 51  1  0  0  0
 26 67  1  0  0  0
 26 69  1  0  0  0
 27 28  1  0  0  0
 28 29  1  0  0  0
 28 30  1  0  0  0
 28 35  1  0  0  0
 30 31  1  0  0  0
 30 32  1  0  0  0
 30 34  1  0  0  0
 32 33  1  0  0  0
 32 52  1  0  0  0
 32 53  1  0  0  0
 33 54  1  0  0  0
 34 55  1  0  0  0
 35 36  1  0  0  0
 35 37  1  0  0  0
 35 41  1  0  0  0
 37 38  1  0  0  0
 37 40  1  0  0  0
 37 70  1  0  0  0
 38 39  2  0  0  0
 38 56  1  0  0  0
 40 66  1  0  0  0
 40 68  1  0  0  0
 41 57  1  0  0  0
 42 43  1  0  0  0
 42 58  1  0  0  0
 42 59  1  0  0  0
 43 60  1  0  0  0
 44 61  1  0  0  0
 44 65  1  0  0  0
 45 62  1  0  0  0
 46 63  1  0  0  0
 47 64  1  0  0  0
M  CHG  1  26   1
M  END
> <s_m_entry_id>
41

> <s_m_entry_name>
biosynth_p1.0.sdf.34

> <s_m_Source_Path>
/Users/Sebastito/Downloads

> <s_m_Source_File>
biosynth_p1.0.sdf.gz

> <i_m_Source_File_Index>
34

> <chiral flag>
1

> <version>
0

> <i_m_ct_enhanced_stereo_status>
0

> <s_m_source_file>
ligprep_vs.maegz

> <i_m_source_file_index>
34

> <i_lp_mmshare_version>
37011

> <r_epik_Ionization_Penalty>
1.38

> <r_epik_Ionization_Penalty_Charging>
0.268472

> <r_epik_Ionization_Penalty_Neutral>
1.11152

> <r_epik_State_Penalty>
1.13723

> <r_epik_Charging_Adjusted_Penalty>
1.40571

> <i_epik_Tot_Q>
1

> <i_epik_Tot_abs_Q>
1

> <s_epik_Chemistry_Notes>
This compound contains an acetal/aminal-like group ( X-CH(R)-Y where X, Y are N, S, or O) that may be acid/base labile, releasing an aldehyde.

> <i_f3d_flags>
0

> <s_lp_Force_Field>
OPLS_2005

> <r_lp_Energy>
69.4145

> <b_lp_Chiralities_Consistent>
1

> <s_lp_Variant>
ZINC98231168-4

$$$$
ZINC98231168
                    3D
 Structure written by MMmdl.
 70 71  0  0  1  0            999 V2000
    0.6118   -0.1739   -7.2095 C   0  0  0  0  0  0
   -0.3464    0.8800   -6.6241 C   0  0  2  0  0  0
   -1.3803    0.5430   -6.7277 H   0  0  0  0  0  0
   -0.1793    2.2680   -7.2728 C   0  0  2  0  0  0
    0.8766    2.5444   -7.2712 H   0  0  0  0  0  0
   -1.0093    3.3234   -6.5156 C   0  0  1  0  0  0
   -2.0713    3.1872   -6.7287 H   0  0  0  0  0  0
   -0.7663    3.2695   -4.9910 C   0  0  2  0  0  0
    0.2471    3.6062   -4.7670 H   0  0  0  0  0  0
   -0.8876    1.8057   -4.5136 C   0  0  1  0  0  0
   -1.9100    1.4388   -4.6300 H   0  0  0  0  0  0
   -0.0077    1.0177   -5.2519 O   0  0  0  0  0  0
   -0.5144    1.7853   -3.1734 O   0  0  0  0  0  0
   -1.0645    0.7469   -2.3638 C   0  0  2  0  0  0
   -2.1451    0.6692   -2.4938 H   0  0  0  0  0  0
   -0.7580    1.2270   -0.9237 C   0  0  2  0  0  0
    0.2806    1.5594   -0.9009 H   0  0  0  0  0  0
   -0.8808    0.1912    0.0493 O   0  0  0  0  0  0
   -0.0744   -0.9223   -0.1827 C   0  0  1  0  0  0
   -0.2066   -1.6048    0.6588 H   0  0  0  0  0  0
   -0.5634   -1.5977   -1.4760 C   0  0  1  0  0  0
   -1.6263   -1.7979   -1.3314 H   0  0  0  0  0  0
   -0.3993   -0.6216   -2.6613 C   0  0  1  0  0  0
    0.6544   -0.4925   -2.9133 H   0  0  0  0  0  0
   -1.0939   -1.2128   -3.7442 O   0  0  0  0  0  0
    0.1298   -2.8817   -1.6838 N   0  0  0  0  0  0
    1.2735   -0.5860   -0.3365 O   0  0  0  0  0  0
    2.0765   -0.5383    0.8421 C   0  0  1  0  0  0
    1.9423   -1.5199    1.2979 H   0  0  0  0  0  0
    3.5691   -0.4986    0.4211 C   0  0  1  0  0  0
    4.1787   -0.5902    1.3207 H   0  0  0  0  0  0
    3.9388   -1.6437   -0.5404 C   0  0  0  0  0  0
    5.3403   -1.8062   -0.5897 O   0  0  0  0  0  0
    3.8943    0.7338   -0.1925 O   0  0  0  0  0  0
    1.6083    0.5177    1.8955 C   0  0  1  0  0  0
    0.5471    0.3815    2.1025 H   0  0  0  0  0  0
    2.3684    0.4668    3.2475 C   0  0  2  0  0  0
    2.3028   -0.9081    3.9204 C   0  0  0  0  0  0
    1.2673   -1.5566    4.0598 O   0  0  0  0  0  0
    1.7854    1.4115    4.2187 N   0  3  0  0  0  0
    1.7800    1.8217    1.3741 O   0  0  0  0  0  0
   -1.5961    2.4323   -0.4567 C   0  0  0  0  0  0
   -2.9811    2.2098   -0.6234 O   0  0  0  0  0  0
   -1.7519    4.1113   -4.2886 N   0  0  0  0  0  0
   -0.5895    4.5990   -6.9644 O   0  0  0  0  0  0
   -0.6485    2.2048   -8.6073 O   0  0  0  0  0  0
    0.1358   -1.4718   -6.9231 O   0  0  0  0  0  0
    0.6692   -0.0878   -8.2945 H   0  0  0  0  0  0
    1.6244   -0.0480   -6.8241 H   0  0  0  0  0  0
   -1.9908   -1.3559   -3.4842 H   0  0  0  0  0  0
    1.1238   -2.7260   -1.8444 H   0  0  0  0  0  0
    3.5136   -2.5850   -0.1911 H   0  0  0  0  0  0
    3.5469   -1.4680   -1.5432 H   0  0  0  0  0  0
    5.7205   -1.0118   -0.9337 H   0  0  0  0  0  0
    3.6629    1.4354    0.3970 H   0  0  0  0  0  0
    3.2741   -1.2526    4.2758 H   0  0  0  0  0  0
    1.3103    1.8792    0.5550 H   0  0  0  0  0  0
   -1.3867    2.6659    0.5874 H   0  0  0  0  0  0
   -1.3290    3.3151   -1.0384 H   0  0  0  0  0  0
   -3.4434    3.0004   -0.3898 H   0  0  0  0  0  0
   -1.7180    5.0635   -4.6506 H   0  0  0  0  0  0
    0.3317    4.6943   -6.7771 H   0  0  0  0  0  0
   -0.1411    1.5591   -9.0744 H   0  0  0  0  0  0
    0.7493   -2.1020   -7.2681 H   0  0  0  0  0  0
   -2.6955    3.7673   -4.4605 H   0  0  0  0  0  0
    2.3128    1.3830    5.0795 H   0  0  0  0  0  0
    0.0498   -3.4698   -0.8559 H   0  0  0  0  0  0
    0.8263    1.1534    4.4024 H   0  0  0  0  0  0
    3.4135    0.7372    3.0950 H   0  0  0  0  0  0
    1.8147    2.3448    3.8336 H   0  0  0  0  0  0
  1  2  1  0  0  0
  1 47  1  0  0  0
  1 48  1  0  0  0
  1 49  1  0  0  0
  2  3  1  0  0  0
  2 12  1  0  0  0
  2  4  1  0  0  0
  4  5  1  0  0  0
  4  6  1  0  0  0
  4 46  1  0  0  0
  6  7  1  0  0  0
  6  8  1  0  0  0
  6 45  1  0  0  0
  8  9  1  0  0  0
  8 10  1  0  0  0
  8 44  1  0  0  0
 10 11  1  0  0  0
 10 12  1  0  0  0
 10 13  1  0  0  0
 13 14  1  0  0  0
 14 15  1  0  0  0
 14 23  1  0  0  0
 14 16  1  0  0  0
 16 17  1  0  0  0
 16 18  1  0  0  0
 16 42  1  0  0  0
 18 19  1  0  0  0
 19 20  1  0  0  0
 19 21  1  0  0  0
 19 27  1  0  0  0
 21 22  1  0  0  0
 21 23  1  0  0  0
 21 26  1  0  0  0
 23 24  1  0  0  0
 23 25  1  0  0  0
 25 50  1  0  0  0
 26 51  1  0  0  0
 26 67  1  0  0  0
 27 28  1  0  0  0
 28 29  1  0  0  0
 28 30  1  0  0  0
 28 35  1  0  0  0
 30 31  1  0  0  0
 30 32  1  0  0  0
 30 34  1  0  0  0
 32 33  1  0  0  0
 32 52  1  0  0  0
 32 53  1  0  0  0
 33 54  1  0  0  0
 34 55  1  0  0  0
 35 36  1  0  0  0
 35 37  1  0  0  0
 35 41  1  0  0  0
 37 38  1  0  0  0
 37 40  1  0  0  0
 37 69  1  0  0  0
 38 39  2  0  0  0
 38 56  1  0  0  0
 40 66  1  0  0  0
 40 68  1  0  0  0
 40 70  1  0  0  0
 41 57  1  0  0  0
 42 43  1  0  0  0
 42 58  1  0  0  0
 42 59  1  0  0  0
 43 60  1  0  0  0
 44 61  1  0  0  0
 44 65  1  0  0  0
 45 62  1  0  0  0
 46 63  1  0  0  0
 47 64  1  0  0  0
M  CHG  1  40   1
M  END
> <s_m_entry_id>
41

> <s_m_entry_name>
biosynth_p1.0.sdf.34

> <s_m_Source_Path>
/Users/Sebastito/Downloads

> <s_m_Source_File>
biosynth_p1.0.sdf.gz

> <i_m_Source_File_Index>
34

> <chiral flag>
1

> <version>
0

> <i_m_ct_enhanced_stereo_status>
0

> <s_m_source_file>
ligprep_vs.maegz

> <i_m_source_file_index>
34

> <i_lp_mmshare_version>
37011

> <r_epik_Ionization_Penalty>
4.2582

> <r_epik_Ionization_Penalty_Charging>
0.372387

> <r_epik_Ionization_Penalty_Neutral>
3.88581

> <r_epik_State_Penalty>
1.42276

> <r_epik_Charging_Adjusted_Penalty>
1.79515

> <i_epik_Tot_Q>
1

> <i_epik_Tot_abs_Q>
1

> <s_epik_Chemistry_Notes>
This compound contains an acetal/aminal-like group ( X-CH(R)-Y where X, Y are N, S, or O) that may be acid/base labile, releasing an aldehyde.

> <i_f3d_flags>
0

> <s_lp_Force_Field>
OPLS_2005

> <r_lp_Energy>
75.1773

> <b_lp_Chiralities_Consistent>
1

> <s_lp_Variant>
ZINC98231168-5

$$$$
ZINC98231168
                    3D
 Structure written by MMmdl.
 69 70  0  0  1  0            999 V2000
   -3.8367    1.1697   -6.2770 C   0  0  0  0  0  0
   -3.0275    2.3311   -5.6719 C   0  0  2  0  0  0
   -3.6800    2.9674   -5.0696 H   0  0  0  0  0  0
   -2.3042    3.1751   -6.7386 C   0  0  2  0  0  0
   -1.7522    2.5148   -7.4098 H   0  0  0  0  0  0
   -1.3464    4.1852   -6.0758 C   0  0  1  0  0  0
   -1.9161    4.9996   -5.6238 H   0  0  0  0  0  0
   -0.4390    3.5249   -5.0139 C   0  0  2  0  0  0
    0.2841    2.8699   -5.5022 H   0  0  0  0  0  0
   -1.3018    2.6443   -4.0828 C   0  0  1  0  0  0
   -1.9828    3.2481   -3.4784 H   0  0  0  0  0  0
   -2.0239    1.7414   -4.8604 O   0  0  0  0  0  0
   -0.4306    1.9525   -3.2459 O   0  0  0  0  0  0
   -1.0606    1.1493   -2.2515 C   0  0  2  0  0  0
   -2.1510    1.2181   -2.2694 H   0  0  0  0  0  0
   -0.5511    1.6487   -0.8772 C   0  0  2  0  0  0
    0.5285    1.8004   -0.9220 H   0  0  0  0  0  0
   -0.8267    0.6835    0.1377 O   0  0  0  0  0  0
   -0.2314   -0.5620   -0.0595 C   0  0  1  0  0  0
   -0.4387   -1.1715    0.8217 H   0  0  0  0  0  0
   -0.8843   -1.2045   -1.2967 C   0  0  1  0  0  0
   -1.9573   -1.2317   -1.1010 H   0  0  0  0  0  0
   -0.6256   -0.3084   -2.5235 C   0  0  1  0  0  0
    0.4254   -0.3504   -2.8144 H   0  0  0  0  0  0
   -1.4372   -0.7998   -3.5734 O   0  0  0  0  0  0
   -0.4029   -2.5850   -1.4779 N   0  0  0  0  0  0
    1.1450   -0.4639   -0.2808 O   0  0  0  0  0  0
    2.0026   -0.5373    0.8576 C   0  0  1  0  0  0
    1.7201   -1.4728    1.3407 H   0  0  0  0  0  0
    3.4658   -0.7573    0.3796 C   0  0  1  0  0  0
    4.0895   -0.8293    1.2700 H   0  0  0  0  0  0
    3.7096   -2.0594   -0.4114 C   0  0  0  0  0  0
    2.9935   -2.0982   -1.6300 O   0  0  0  0  0  0
    3.9878    0.3410   -0.3414 O   0  0  0  0  0  0
    1.7668    0.6103    1.8960 C   0  0  1  0  0  0
    0.7050    0.6779    2.1315 H   0  0  0  0  0  0
    2.5405    0.4898    3.2400 C   0  0  2  0  0  0
    2.3926   -0.8987    3.8743 C   0  0  0  0  0  0
    3.1459   -1.8428    3.6438 O   0  0  0  0  0  0
    2.0951    1.5128    4.2015 N   0  0  0  0  0  0
    2.1644    1.8354    1.3097 O   0  0  0  0  0  0
   -1.2038    2.9637   -0.4163 C   0  0  0  0  0  0
   -0.6298    4.0723   -1.0742 O   0  0  0  0  0  0
    0.2568    4.5591   -4.2293 N   0  0  0  0  0  0
   -0.5003    4.6945   -7.0903 O   0  0  0  0  0  0
   -3.2727    3.8960   -7.4774 O   0  0  0  0  0  0
   -4.7487    0.6707   -5.3222 O   0  0  0  0  0  0
   -4.4215    1.5089   -7.1320 H   0  0  0  0  0  0
   -3.1842    0.3704   -6.6303 H   0  0  0  0  0  0
   -1.3139   -0.2442   -4.3282 H   0  0  0  0  0  0
    0.6008   -2.5840   -1.6561 H   0  0  0  0  0  0
    4.7720   -2.1760   -0.6282 H   0  0  0  0  0  0
    3.4155   -2.9210    0.1887 H   0  0  0  0  0  0
    3.2092   -2.9013   -2.0792 H   0  0  0  0  0  0
    3.5068    0.4165   -1.1515 H   0  0  0  0  0  0
    1.5515   -0.9690    4.5648 H   0  0  0  0  0  0
    1.6915    1.9455    0.4990 H   0  0  0  0  0  0
   -2.2826    2.9491   -0.5740 H   0  0  0  0  0  0
   -1.0388    3.1039    0.6525 H   0  0  0  0  0  0
   -1.0418    4.8599   -0.7532 H   0  0  0  0  0  0
    0.8492    4.1288   -3.5205 H   0  0  0  0  0  0
   -0.0201    3.9742   -7.4690 H   0  0  0  0  0  0
   -3.8507    3.2795   -7.8999 H   0  0  0  0  0  0
   -4.2582    0.3304   -4.5893 H   0  0  0  0  0  0
    0.8613    5.1152   -4.8325 H   0  0  0  0  0  0
    2.7142    1.5303    5.0106 H   0  0  0  0  0  0
   -0.5491   -3.1257   -0.6272 H   0  0  0  0  0  0
    2.1431    2.4364    3.7732 H   0  0  0  0  0  0
    3.6001    0.6448    3.0336 H   0  0  0  0  0  0
  1  2  1  0  0  0
  1 47  1  0  0  0
  1 48  1  0  0  0
  1 49  1  0  0  0
  2  3  1  0  0  0
  2 12  1  0  0  0
  2  4  1  0  0  0
  4  5  1  0  0  0
  4  6  1  0  0  0
  4 46  1  0  0  0
  6  7  1  0  0  0
  6  8  1  0  0  0
  6 45  1  0  0  0
  8  9  1  0  0  0
  8 10  1  0  0  0
  8 44  1  0  0  0
 10 11  1  0  0  0
 10 12  1  0  0  0
 10 13  1  0  0  0
 13 14  1  0  0  0
 14 15  1  0  0  0
 14 23  1  0  0  0
 14 16  1  0  0  0
 16 17  1  0  0  0
 16 18  1  0  0  0
 16 42  1  0  0  0
 18 19  1  0  0  0
 19 20  1  0  0  0
 19 21  1  0  0  0
 19 27  1  0  0  0
 21 22  1  0  0  0
 21 23  1  0  0  0
 21 26  1  0  0  0
 23 24  1  0  0  0
 23 25  1  0  0  0
 25 50  1  0  0  0
 26 51  1  0  0  0
 26 67  1  0  0  0
 27 28  1  0  0  0
 28 29  1  0  0  0
 28 30  1  0  0  0
 28 35  1  0  0  0
 30 31  1  0  0  0
 30 32  1  0  0  0
 30 34  1  0  0  0
 32 33  1  0  0  0
 32 52  1  0  0  0
 32 53  1  0  0  0
 33 54  1  0  0  0
 34 55  1  0  0  0
 35 36  1  0  0  0
 35 37  1  0  0  0
 35 41  1  0  0  0
 37 38  1  0  0  0
 37 40  1  0  0  0
 37 69  1  0  0  0
 38 39  2  0  0  0
 38 56  1  0  0  0
 40 66  1  0  0  0
 40 68  1  0  0  0
 41 57  1  0  0  0
 42 43  1  0  0  0
 42 58  1  0  0  0
 42 59  1  0  0  0
 43 60  1  0  0  0
 44 61  1  0  0  0
 44 65  1  0  0  0
 45 62  1  0  0  0
 46 63  1  0  0  0
 47 64  1  0  0  0
M  END
> <s_m_entry_id>
41

> <s_m_entry_name>
biosynth_p1.0.sdf.34

> <s_m_Source_Path>
/Users/Sebastito/Downloads

> <s_m_Source_File>
biosynth_p1.0.sdf.gz

> <i_m_Source_File_Index>
34

> <chiral flag>
1

> <version>
0

> <i_m_ct_enhanced_stereo_status>
0

> <s_m_source_file>
ligprep_vs.maegz

> <i_m_source_file_index>
34

> <i_lp_mmshare_version>
37011

> <r_epik_Ionization_Penalty>
1.75103

> <r_epik_Ionization_Penalty_Charging>
0

> <r_epik_Ionization_Penalty_Neutral>
1.75103

> <r_epik_State_Penalty>
1.4979

> <r_epik_Charging_Adjusted_Penalty>
1.4979

> <i_epik_Tot_Q>
0

> <i_epik_Tot_abs_Q>
0

> <s_epik_Chemistry_Notes>
This compound contains an acetal/aminal-like group ( X-CH(R)-Y where X, Y are N, S, or O) that may be acid/base labile, releasing an aldehyde.

> <i_f3d_flags>
0

> <s_lp_Force_Field>
OPLS_2005

> <r_lp_Energy>
80.1663

> <b_lp_Chiralities_Consistent>
1

> <s_lp_Variant>
ZINC98231168-6

$$$$
ZINC59496006
                    3D
 Structure written by MMmdl.
 53 52  0  0  1  0            999 V2000
   -7.2026    5.6414   -0.2599 C   0  0  0  0  0  0
   -6.5668    4.2478   -0.2062 C   0  0  0  0  0  0
   -5.0322    4.2988   -0.1822 C   0  0  0  0  0  0
   -4.3976    2.9018   -0.1220 C   0  0  0  0  0  0
   -2.8627    2.9485   -0.1228 C   0  0  0  0  0  0
   -2.2328    1.5496   -0.0553 C   0  0  0  0  0  0
   -0.6980    1.5921   -0.0391 C   0  0  0  0  0  0
   -0.0717    0.1924    0.0458 C   0  0  0  0  0  0
    1.4628    0.2335    0.0828 C   0  0  0  0  0  0
    2.0850   -1.1687    0.1855 C   0  0  0  0  0  0
    3.6230   -1.1704    0.1689 C   0  0  0  0  0  0
    4.2554   -0.5850    1.4408 C   0  0  0  0  0  0
    5.7272   -0.6858    1.3943 N   0  3  0  0  0  0
    6.4044   -0.1452    2.5902 C   0  0  0  0  0  0
    7.9300   -0.2883    2.4800 C   0  0  0  0  0  0
    8.6642    0.2679    3.7098 C   0  0  0  0  0  0
   10.1244    0.1175    3.5827 N   0  3  0  0  0  0
   -8.2904    5.5716   -0.2784 H   0  0  0  0  0  0
   -6.8891    6.1836   -1.1525 H   0  0  0  0  0  0
   -6.9223    6.2364    0.6098 H   0  0  0  0  0  0
   -6.9296    3.7216    0.6776 H   0  0  0  0  0  0
   -6.9000    3.6687   -1.0683 H   0  0  0  0  0  0
   -4.6740    4.8224   -1.0695 H   0  0  0  0  0  0
   -4.7012    4.8844    0.6764 H   0  0  0  0  0  0
   -4.7441    2.3861    0.7746 H   0  0  0  0  0  0
   -4.7419    2.3102   -0.9710 H   0  0  0  0  0  0
   -2.5155    3.4597   -1.0217 H   0  0  0  0  0  0
   -2.5181    3.5434    0.7240 H   0  0  0  0  0  0
   -2.5896    1.0356    0.8382 H   0  0  0  0  0  0
   -2.5706    0.9580   -0.9071 H   0  0  0  0  0  0
   -0.3390    2.0972   -0.9368 H   0  0  0  0  0  0
   -0.3620    2.1913    0.8079 H   0  0  0  0  0  0
   -0.4419   -0.3153    0.9374 H   0  0  0  0  0  0
   -0.3991   -0.4038   -0.8070 H   0  0  0  0  0  0
    1.8330    0.7310   -0.8144 H   0  0  0  0  0  0
    1.7801    0.8438    0.9283 H   0  0  0  0  0  0
    1.7274   -1.6692    1.0863 H   0  0  0  0  0  0
    1.7304   -1.7693   -0.6529 H   0  0  0  0  0  0
    3.9631   -2.2003    0.0504 H   0  0  0  0  0  0
    3.9812   -0.6311   -0.7091 H   0  0  0  0  0  0
    3.9786    0.4630    1.5568 H   0  0  0  0  0  0
    3.8869   -1.1168    2.3191 H   0  0  0  0  0  0
    6.1353    0.9054    2.7087 H   0  0  0  0  0  0
    6.0436   -0.6724    3.4745 H   0  0  0  0  0  0
    8.1867   -1.3409    2.3496 H   0  0  0  0  0  0
    8.2784    0.2289    1.5847 H   0  0  0  0  0  0
    8.4331    1.3251    3.8443 H   0  0  0  0  0  0
    8.3384   -0.2502    4.6124 H   0  0  0  0  0  0
   10.5744    0.4850    4.4094 H   0  0  0  0  0  0
   10.4501    0.6259    2.7726 H   0  0  0  0  0  0
    5.9754   -1.6599    1.2941 H   0  0  0  0  0  0
    6.0548   -0.1835    0.5815 H   0  0  0  0  0  0
   10.3590   -0.8599    3.4827 H   0  0  0  0  0  0
  1  2  1  0  0  0
  1 18  1  0  0  0
  1 19  1  0  0  0
  1 20  1  0  0  0
  2  3  1  0  0  0
  2 21  1  0  0  0
  2 22  1  0  0  0
  3  4  1  0  0  0
  3 23  1  0  0  0
  3 24  1  0  0  0
  4  5  1  0  0  0
  4 25  1  0  0  0
  4 26  1  0  0  0
  5  6  1  0  0  0
  5 27  1  0  0  0
  5 28  1  0  0  0
  6  7  1  0  0  0
  6 29  1  0  0  0
  6 30  1  0  0  0
  7  8  1  0  0  0
  7 31  1  0  0  0
  7 32  1  0  0  0
  8  9  1  0  0  0
  8 33  1  0  0  0
  8 34  1  0  0  0
  9 10  1  0  0  0
  9 35  1  0  0  0
  9 36  1  0  0  0
 10 11  1  0  0  0
 10 37  1  0  0  0
 10 38  1  0  0  0
 11 12  1  0  0  0
 11 39  1  0  0  0
 11 40  1  0  0  0
 12 13  1  0  0  0
 12 41  1  0  0  0
 12 42  1  0  0  0
 13 14  1  0  0  0
 13 51  1  0  0  0
 13 52  1  0  0  0
 14 15  1  0  0  0
 14 43  1  0  0  0
 14 44  1  0  0  0
 15 16  1  0  0  0
 15 45  1  0  0  0
 15 46  1  0  0  0
 16 17  1  0  0  0
 16 47  1  0  0  0
 16 48  1  0  0  0
 17 49  1  0  0  0
 17 50  1  0  0  0
 17 53  1  0  0  0
M  CHG  2  13   1  17   1
M  END
> <s_m_entry_id>
42

> <s_m_entry_name>
biosynth_p1.0.sdf.35

> <s_m_Source_Path>
/Users/Sebastito/Downloads

> <s_m_Source_File>
biosynth_p1.0.sdf.gz

> <i_m_Source_File_Index>
35

> <chiral flag>
0

> <version>
0

> <i_m_ct_enhanced_stereo_status>
0

> <s_m_source_file>
ligprep_vs.maegz

> <i_m_source_file_index>
35

> <i_lp_mmshare_version>
37011

> <i_f3d_flags>
0

> <r_epik_Ionization_Penalty>
0.00390168

> <r_epik_Ionization_Penalty_Charging>
0.00390168

> <r_epik_Ionization_Penalty_Neutral>
0

> <r_epik_State_Penalty>
0.00268765

> <r_epik_Charging_Adjusted_Penalty>
0.00658933

> <i_epik_Tot_Q>
2

> <i_epik_Tot_abs_Q>
2

> <s_lp_Force_Field>
OPLS_2005

> <r_lp_Energy>
12.3571

> <b_lp_Chiralities_Consistent>
1

> <s_lp_Variant>
ZINC59496006-1

$$$$
ZINC98231169
                    3D
 Structure written by MMmdl.
 71 72  0  0  1  0            999 V2000
   -4.7611    0.4275    5.8424 C   0  0  0  0  0  0
   -5.0752    1.3693    4.6641 C   0  0  2  0  0  0
   -4.6064    2.3302    4.8863 H   0  0  0  0  0  0
   -6.5788    1.5974    4.3867 C   0  0  2  0  0  0
   -7.0954    0.6432    4.2739 H   0  0  0  0  0  0
   -6.7534    2.4378    3.1088 C   0  0  1  0  0  0
   -6.4375    3.4675    3.2875 H   0  0  0  0  0  0
   -5.9413    1.8350    1.9446 C   0  0  2  0  0  0
   -6.3231    0.8464    1.6843 H   0  0  0  0  0  0
   -4.4712    1.6802    2.3897 C   0  0  1  0  0  0
   -4.0282    2.6486    2.6333 H   0  0  0  0  0  0
   -4.4292    0.8476    3.5085 O   0  0  0  0  0  0
   -3.7727    1.1055    1.3299 O   0  0  0  0  0  0
   -2.3631    1.0030    1.5172 C   0  0  2  0  0  0
   -2.0195    1.4491    2.4535 H   0  0  0  0  0  0
   -1.7122    1.7452    0.3281 C   0  0  2  0  0  0
   -2.1656    1.3980   -0.6030 H   0  0  0  0  0  0
   -0.3199    1.4580    0.3217 O   0  0  0  0  0  0
   -0.0126    0.1218    0.0758 C   0  0  2  0  0  0
   -0.5058   -0.2126   -0.8390 H   0  0  0  0  0  0
   -0.4761   -0.6999    1.2900 C   0  0  1  0  0  0
    0.0672   -0.3424    2.1665 H   0  0  0  0  0  0
   -1.9950   -0.4960    1.4731 C   0  0  1  0  0  0
   -2.5365   -0.9880    0.6632 H   0  0  0  0  0  0
   -2.3541   -1.0871    2.7075 O   0  0  0  0  0  0
   -0.1661   -2.1276    1.0828 N   0  3  0  0  0  0
    1.3656   -0.0407   -0.0415 O   0  0  0  0  0  0
    1.9458    0.4701   -1.2419 C   0  0  1  0  0  0
    1.3257    1.3141   -1.5442 H   0  0  0  0  0  0
    3.3324    1.1009   -0.9340 C   0  0  1  0  0  0
    3.6990    1.5921   -1.8358 H   0  0  0  0  0  0
    3.2981    2.1483    0.1957 C   0  0  0  0  0  0
    2.4906    3.2505   -0.1617 O   0  0  0  0  0  0
    4.2960    0.1222   -0.6034 O   0  0  0  0  0  0
    1.8640   -0.5814   -2.3942 C   0  0  1  0  0  0
    0.8330   -0.9192   -2.5002 H   0  0  0  0  0  0
    2.3687   -0.0964   -3.7819 C   0  0  2  0  0  0
    1.7447    1.2452   -4.1846 C   0  0  0  0  0  0
    0.5334    1.4589   -4.2096 O   0  0  0  0  0  0
    2.0891   -1.0948   -4.8288 N   0  0  0  0  0  0
    2.6424   -1.7084   -2.0380 O   0  0  0  0  0  0
   -1.8507    3.2739    0.4282 C   0  0  0  0  0  0
   -1.6611    3.8539   -0.8444 O   0  0  0  0  0  0
   -6.0269    2.7083    0.7581 N   0  3  0  0  0  0
   -8.1216    2.4254    2.7439 O   0  0  0  0  0  0
   -7.1324    2.3085    5.4768 O   0  0  0  0  0  0
   -5.4802   -0.7847    5.7505 O   0  0  0  0  0  0
   -3.6929    0.2149    5.8926 H   0  0  0  0  0  0
   -5.0322    0.9066    6.7835 H   0  0  0  0  0  0
   -1.9407   -0.6055    3.4081 H   0  0  0  0  0  0
   -0.6506   -2.4652    0.2636 H   0  0  0  0  0  0
   -0.4614   -2.6571    1.8907 H   0  0  0  0  0  0
    2.9256    1.7160    1.1250 H   0  0  0  0  0  0
    4.3039    2.5194    0.3969 H   0  0  0  0  0  0
    2.5279    3.8887    0.5344 H   0  0  0  0  0  0
    3.9947   -0.3508    0.1569 H   0  0  0  0  0  0
    2.4877    1.9936   -4.4600 H   0  0  0  0  0  0
    2.5861   -2.3402   -2.7392 H   0  0  0  0  0  0
   -2.8509    3.5526    0.7576 H   0  0  0  0  0  0
   -1.1448    3.6917    1.1468 H   0  0  0  0  0  0
   -1.6889    4.7948   -0.7572 H   0  0  0  0  0  0
   -5.6606    3.6223    0.9820 H   0  0  0  0  0  0
   -8.4224    1.5294    2.7216 H   0  0  0  0  0  0
   -7.0779    1.7660    6.2493 H   0  0  0  0  0  0
   -5.1951   -1.2453    4.9759 H   0  0  0  0  0  0
   -6.9937    2.7951    0.4784 H   0  0  0  0  0  0
    1.0842   -1.2296   -4.9324 H   0  0  0  0  0  0
    2.4435   -0.7748   -5.7292 H   0  0  0  0  0  0
    0.8297   -2.2369    0.9516 H   0  0  0  0  0  0
    3.4471    0.0525   -3.7187 H   0  0  0  0  0  0
   -5.4919    2.3045    0.0027 H   0  0  0  0  0  0
  1  2  1  0  0  0
  1 47  1  0  0  0
  1 48  1  0  0  0
  1 49  1  0  0  0
  2  3  1  0  0  0
  2 12  1  0  0  0
  2  4  1  0  0  0
  4  5  1  0  0  0
  4  6  1  0  0  0
  4 46  1  0  0  0
  6  7  1  0  0  0
  6  8  1  0  0  0
  6 45  1  0  0  0
  8  9  1  0  0  0
  8 10  1  0  0  0
  8 44  1  0  0  0
 10 11  1  0  0  0
 10 12  1  0  0  0
 10 13  1  0  0  0
 13 14  1  0  0  0
 14 15  1  0  0  0
 14 23  1  0  0  0
 14 16  1  0  0  0
 16 17  1  0  0  0
 16 18  1  0  0  0
 16 42  1  0  0  0
 18 19  1  0  0  0
 19 20  1  0  0  0
 19 21  1  0  0  0
 19 27  1  0  0  0
 21 22  1  0  0  0
 21 23  1  0  0  0
 21 26  1  0  0  0
 23 24  1  0  0  0
 23 25  1  0  0  0
 25 50  1  0  0  0
 26 51  1  0  0  0
 26 52  1  0  0  0
 26 69  1  0  0  0
 27 28  1  0  0  0
 28 29  1  0  0  0
 28 30  1  0  0  0
 28 35  1  0  0  0
 30 31  1  0  0  0
 30 32  1  0  0  0
 30 34  1  0  0  0
 32 33  1  0  0  0
 32 53  1  0  0  0
 32 54  1  0  0  0
 33 55  1  0  0  0
 34 56  1  0  0  0
 35 36  1  0  0  0
 35 37  1  0  0  0
 35 41  1  0  0  0
 37 38  1  0  0  0
 37 40  1  0  0  0
 37 70  1  0  0  0
 38 39  2  0  0  0
 38 57  1  0  0  0
 40 67  1  0  0  0
 40 68  1  0  0  0
 41 58  1  0  0  0
 42 43  1  0  0  0
 42 59  1  0  0  0
 42 60  1  0  0  0
 43 61  1  0  0  0
 44 62  1  0  0  0
 44 66  1  0  0  0
 44 71  1  0  0  0
 45 63  1  0  0  0
 46 64  1  0  0  0
 47 65  1  0  0  0
M  CHG  2  26   1  44   1
M  END
> <s_m_entry_id>
43

> <s_m_entry_name>
biosynth_p1.0.sdf.36

> <s_m_Source_Path>
/Users/Sebastito/Downloads

> <s_m_Source_File>
biosynth_p1.0.sdf.gz

> <i_m_Source_File_Index>
36

> <chiral flag>
1

> <version>
0

> <i_m_ct_enhanced_stereo_status>
0

> <s_m_source_file>
ligprep_vs.maegz

> <i_m_source_file_index>
36

> <i_lp_mmshare_version>
37011

> <r_epik_Ionization_Penalty>
0.938878

> <r_epik_Ionization_Penalty_Charging>
0.505476

> <r_epik_Ionization_Penalty_Neutral>
0.433402

> <r_epik_State_Penalty>
0.656471

> <r_epik_Charging_Adjusted_Penalty>
1.16195

> <i_epik_Tot_Q>
2

> <i_epik_Tot_abs_Q>
2

> <s_epik_Chemistry_Notes>
This compound contains an acetal/aminal-like group ( X-CH(R)-Y where X, Y are N, S, or O) that may be acid/base labile, releasing an aldehyde.

> <i_f3d_flags>
0

> <s_lp_Force_Field>
OPLS_2005

> <r_lp_Energy>
68.6483

> <b_lp_Chiralities_Consistent>
1

> <s_lp_Variant>
ZINC98231169-1

$$$$
ZINC98231169
                    3D
 Structure written by MMmdl.
 70 71  0  0  1  0            999 V2000
   -5.4135   -0.5156    5.4403 C   0  0  0  0  0  0
   -5.4828    0.8173    4.6711 C   0  0  2  0  0  0
   -4.9430    1.5834    5.2320 H   0  0  0  0  0  0
   -6.9249    1.2875    4.3627 C   0  0  2  0  0  0
   -7.4919    0.4663    3.9208 H   0  0  0  0  0  0
   -6.9041    2.4919    3.4030 C   0  0  1  0  0  0
   -6.5281    3.3781    3.9176 H   0  0  0  0  0  0
   -6.0321    2.1884    2.1700 C   0  0  2  0  0  0
   -6.4623    1.3712    1.5880 H   0  0  0  0  0  0
   -4.6388    1.7487    2.6576 C   0  0  1  0  0  0
   -4.1525    2.5352    3.2390 H   0  0  0  0  0  0
   -4.7946    0.6062    3.4426 O   0  0  0  0  0  0
   -3.8707    1.4691    1.5310 O   0  0  0  0  0  0
   -2.5058    1.1618    1.7994 C   0  0  2  0  0  0
   -2.2765    1.1183    2.8673 H   0  0  0  0  0  0
   -1.6429    2.2587    1.1403 C   0  0  2  0  0  0
   -1.9420    2.4068    0.1004 H   0  0  0  0  0  0
   -0.2892    1.8349    1.1589 O   0  0  0  0  0  0
   -0.0209    0.7116    0.3805 C   0  0  2  0  0  0
   -0.3640    0.8752   -0.6430 H   0  0  0  0  0  0
   -0.7182   -0.5089    1.0146 C   0  0  1  0  0  0
   -0.2790   -0.6609    2.0018 H   0  0  0  0  0  0
   -2.2277   -0.2094    1.1509 C   0  0  1  0  0  0
   -2.7106   -0.2653    0.1738 H   0  0  0  0  0  0
   -2.7627   -1.1957    2.0121 O   0  0  0  0  0  0
   -0.5075   -1.6994    0.1712 N   0  0  0  0  0  0
    1.3485    0.4584    0.3925 O   0  0  0  0  0  0
    2.1484    1.3556   -0.3769 C   0  0  1  0  0  0
    1.6126    2.3051   -0.3976 H   0  0  0  0  0  0
    3.4671    1.6712    0.3824 C   0  0  1  0  0  0
    4.0097    2.4426   -0.1648 H   0  0  0  0  0  0
    3.2443    2.1760    1.8212 C   0  0  0  0  0  0
    2.5616    3.4127    1.8242 O   0  0  0  0  0  0
    4.3262    0.5509    0.4333 O   0  0  0  0  0  0
    2.2564    0.8687   -1.8567 C   0  0  1  0  0  0
    1.2538    0.6959   -2.2491 H   0  0  0  0  0  0
    3.0141    1.8196   -2.8247 C   0  0  2  0  0  0
    2.5105    3.2647   -2.7269 C   0  0  0  0  0  0
    1.3369    3.5961   -2.8895 O   0  0  0  0  0  0
    2.9037    1.3588   -4.2203 N   0  0  0  0  0  0
    2.9401   -0.3701   -1.8810 O   0  0  0  0  0  0
   -1.6761    3.6118    1.8739 C   0  0  0  0  0  0
   -2.8538    4.3337    1.5791 O   0  0  0  0  0  0
   -5.9233    3.3796    1.3073 N   0  3  0  0  0  0
   -8.2254    2.7330    2.9570 O   0  0  0  0  0  0
   -7.5491    1.6954    5.5657 O   0  0  0  0  0  0
   -5.7187   -0.3337    6.8071 O   0  0  0  0  0  0
   -6.0806   -1.2596    5.0043 H   0  0  0  0  0  0
   -4.4034   -0.9232    5.3849 H   0  0  0  0  0  0
   -2.5579   -2.0452    1.6514 H   0  0  0  0  0  0
   -0.8872   -1.5463   -0.7617 H   0  0  0  0  0  0
    0.4905   -1.8713    0.0533 H   0  0  0  0  0  0
    2.6810    1.4520    2.4113 H   0  0  0  0  0  0
    4.2017    2.3203    2.3233 H   0  0  0  0  0  0
    2.4639    3.6981    2.7199 H   0  0  0  0  0  0
    3.8595   -0.1636    0.8397 H   0  0  0  0  0  0
    3.3060    3.9775   -2.5095 H   0  0  0  0  0  0
    2.9635   -0.6778   -2.7745 H   0  0  0  0  0  0
   -1.5758    3.4809    2.9517 H   0  0  0  0  0  0
   -0.8343    4.2249    1.5498 H   0  0  0  0  0  0
   -2.7751    5.1954    1.9605 H   0  0  0  0  0  0
   -5.4980    4.1353    1.8244 H   0  0  0  0  0  0
   -8.7806    2.8450    3.7147 H   0  0  0  0  0  0
   -7.0280    2.3773    5.9620 H   0  0  0  0  0  0
   -6.6090   -0.0233    6.8771 H   0  0  0  0  0  0
   -6.8452    3.6545    1.0002 H   0  0  0  0  0  0
    1.9301    1.3688   -4.5211 H   0  0  0  0  0  0
    3.4189    1.9799   -4.8426 H   0  0  0  0  0  0
    4.0669    1.8241   -2.5397 H   0  0  0  0  0  0
   -5.3498    3.1586    0.5057 H   0  0  0  0  0  0
  1  2  1  0  0  0
  1 47  1  0  0  0
  1 48  1  0  0  0
  1 49  1  0  0  0
  2  3  1  0  0  0
  2 12  1  0  0  0
  2  4  1  0  0  0
  4  5  1  0  0  0
  4  6  1  0  0  0
  4 46  1  0  0  0
  6  7  1  0  0  0
  6  8  1  0  0  0
  6 45  1  0  0  0
  8  9  1  0  0  0
  8 10  1  0  0  0
  8 44  1  0  0  0
 10 11  1  0  0  0
 10 12  1  0  0  0
 10 13  1  0  0  0
 13 14  1  0  0  0
 14 15  1  0  0  0
 14 23  1  0  0  0
 14 16  1  0  0  0
 16 17  1  0  0  0
 16 18  1  0  0  0
 16 42  1  0  0  0
 18 19  1  0  0  0
 19 20  1  0  0  0
 19 21  1  0  0  0
 19 27  1  0  0  0
 21 22  1  0  0  0
 21 23  1  0  0  0
 21 26  1  0  0  0
 23 24  1  0  0  0
 23 25  1  0  0  0
 25 50  1  0  0  0
 26 51  1  0  0  0
 26 52  1  0  0  0
 27 28  1  0  0  0
 28 29  1  0  0  0
 28 30  1  0  0  0
 28 35  1  0  0  0
 30 31  1  0  0  0
 30 32  1  0  0  0
 30 34  1  0  0  0
 32 33  1  0  0  0
 32 53  1  0  0  0
 32 54  1  0  0  0
 33 55  1  0  0  0
 34 56  1  0  0  0
 35 36  1  0  0  0
 35 37  1  0  0  0
 35 41  1  0  0  0
 37 38  1  0  0  0
 37 40  1  0  0  0
 37 69  1  0  0  0
 38 39  2  0  0  0
 38 57  1  0  0  0
 40 67  1  0  0  0
 40 68  1  0  0  0
 41 58  1  0  0  0
 42 43  1  0  0  0
 42 59  1  0  0  0
 42 60  1  0  0  0
 43 61  1  0  0  0
 44 62  1  0  0  0
 44 66  1  0  0  0
 44 70  1  0  0  0
 45 63  1  0  0  0
 46 64  1  0  0  0
 47 65  1  0  0  0
M  CHG  1  44   1
M  END
> <s_m_entry_id>
43

> <s_m_entry_name>
biosynth_p1.0.sdf.36

> <s_m_Source_Path>
/Users/Sebastito/Downloads

> <s_m_Source_File>
biosynth_p1.0.sdf.gz

> <i_m_Source_File_Index>
36

> <chiral flag>
1

> <version>
0

> <i_m_ct_enhanced_stereo_status>
0

> <s_m_source_file>
ligprep_vs.maegz

> <i_m_source_file_index>
36

> <i_lp_mmshare_version>
37011

> <r_epik_Ionization_Penalty>
1.24947

> <r_epik_Ionization_Penalty_Charging>
0.216591

> <r_epik_Ionization_Penalty_Neutral>
1.03288

> <r_epik_State_Penalty>
0.980187

> <r_epik_Charging_Adjusted_Penalty>
1.19678

> <i_epik_Tot_Q>
1

> <i_epik_Tot_abs_Q>
1

> <s_epik_Chemistry_Notes>
This compound contains an acetal/aminal-like group ( X-CH(R)-Y where X, Y are N, S, or O) that may be acid/base labile, releasing an aldehyde.

> <i_f3d_flags>
0

> <s_lp_Force_Field>
OPLS_2005

> <r_lp_Energy>
68.0998

> <b_lp_Chiralities_Consistent>
1

> <s_lp_Variant>
ZINC98231169-2

$$$$
ZINC98231169
                    3D
 Structure written by MMmdl.
 71 72  0  0  1  0            999 V2000
   -3.8027    2.6582    6.0176 C   0  0  0  0  0  0
   -4.4651    2.6605    4.6280 C   0  0  2  0  0  0
   -4.3064    3.6255    4.1416 H   0  0  0  0  0  0
   -5.9730    2.3459    4.6875 C   0  0  2  0  0  0
   -6.1311    1.4423    5.2789 H   0  0  0  0  0  0
   -6.5453    2.1625    3.2685 C   0  0  1  0  0  0
   -6.6052    3.1267    2.7601 H   0  0  0  0  0  0
   -5.7000    1.1766    2.4313 C   0  0  2  0  0  0
   -5.7944    0.1685    2.8378 H   0  0  0  0  0  0
   -4.2124    1.5809    2.5355 C   0  0  1  0  0  0
   -4.0343    2.5545    2.0735 H   0  0  0  0  0  0
   -3.8449    1.6240    3.8792 O   0  0  0  0  0  0
   -3.4732    0.6029    1.8743 O   0  0  0  0  0  0
   -2.0897    0.8989    1.7124 C   0  0  2  0  0  0
   -1.7980    1.8558    2.1521 H   0  0  0  0  0  0
   -1.8181    0.9245    0.1924 C   0  0  2  0  0  0
   -2.2374    0.0254   -0.2645 H   0  0  0  0  0  0
   -0.4108    0.9579   -0.0033 O   0  0  0  0  0  0
    0.2552   -0.1974    0.3977 C   0  0  2  0  0  0
   -0.2073   -1.0812   -0.0480 H   0  0  0  0  0  0
    0.1847   -0.2447    1.9383 C   0  0  1  0  0  0
    0.6915    0.6407    2.3264 H   0  0  0  0  0  0
   -1.2983   -0.2505    2.3692 C   0  0  1  0  0  0
   -1.7547   -1.2083    2.1134 H   0  0  0  0  0  0
   -1.3316   -0.0726    3.7728 O   0  0  0  0  0  0
    0.8625   -1.4480    2.4547 N   0  3  0  0  0  0
    1.6000   -0.1314    0.0222 O   0  0  0  0  0  0
    1.9579   -0.5659   -1.2983 C   0  0  1  0  0  0
    1.6153   -1.5951   -1.4197 H   0  0  0  0  0  0
    1.2455    0.3186   -2.3745 C   0  0  1  0  0  0
    0.1715    0.3056   -2.2009 H   0  0  0  0  0  0
    1.7402    1.7782   -2.4010 C   0  0  0  0  0  0
    0.7740    2.6125   -3.0039 O   0  0  0  0  0  0
    1.3704   -0.2518   -3.6630 O   0  0  0  0  0  0
    3.5241   -0.5586   -1.3670 C   0  0  1  0  0  0
    3.8899    0.4185   -1.0476 H   0  0  0  0  0  0
    4.2471   -1.6822   -0.5700 C   0  0  2  0  0  0
    3.9556   -1.6779    0.9315 C   0  0  0  0  0  0
    4.0045   -0.6770    1.6444 O   0  0  0  0  0  0
    5.7135   -1.5507   -0.6781 N   0  3  0  0  0  0
    3.9499   -0.7533   -2.7032 O   0  0  0  0  0  0
   -2.3941    2.1688   -0.5040 C   0  0  0  0  0  0
   -2.4720    1.9409   -1.8947 O   0  0  0  0  0  0
   -6.1290    1.2009    1.0211 N   0  0  0  0  0  0
   -7.8429    1.6123    3.4008 O   0  0  0  0  0  0
   -6.6389    3.4324    5.3039 O   0  0  0  0  0  0
   -2.5570    3.3195    5.9562 O   0  0  0  0  0  0
   -4.4157    3.1972    6.7401 H   0  0  0  0  0  0
   -3.6762    1.6438    6.3972 H   0  0  0  0  0  0
   -1.0420    0.8041    3.9755 H   0  0  0  0  0  0
    0.4229   -2.2749    2.0771 H   0  0  0  0  0  0
    0.7912   -1.4617    3.4625 H   0  0  0  0  0  0
    1.8922    2.1448   -1.3855 H   0  0  0  0  0  0
    2.6933    1.8718   -2.9226 H   0  0  0  0  0  0
    1.1025    3.4985   -3.0142 H   0  0  0  0  0  0
    0.8933   -1.0675   -3.6819 H   0  0  0  0  0  0
    3.7070   -2.6674    1.3153 H   0  0  0  0  0  0
    3.4825   -0.1485   -3.2615 H   0  0  0  0  0  0
   -3.4076    2.3722   -0.1609 H   0  0  0  0  0  0
   -1.7953    3.0562   -0.2958 H   0  0  0  0  0  0
   -2.7994    2.7235   -2.3117 H   0  0  0  0  0  0
   -6.0671    2.1452    0.6436 H   0  0  0  0  0  0
   -7.7737    0.7788    3.8405 H   0  0  0  0  0  0
   -6.5263    4.2003    4.7650 H   0  0  0  0  0  0
   -1.9988    2.8502    5.3559 H   0  0  0  0  0  0
   -5.5193    0.6129    0.4546 H   0  0  0  0  0  0
    6.1621   -2.3132   -0.1909 H   0  0  0  0  0  0
    6.0046   -0.6730   -0.2713 H   0  0  0  0  0  0
    1.8357   -1.4245    2.1867 H   0  0  0  0  0  0
    3.9631   -2.6531   -0.9775 H   0  0  0  0  0  0
    5.9764   -1.5715   -1.6534 H   0  0  0  0  0  0
  1  2  1  0  0  0
  1 47  1  0  0  0
  1 48  1  0  0  0
  1 49  1  0  0  0
  2  3  1  0  0  0
  2 12  1  0  0  0
  2  4  1  0  0  0
  4  5  1  0  0  0
  4  6  1  0  0  0
  4 46  1  0  0  0
  6  7  1  0  0  0
  6  8  1  0  0  0
  6 45  1  0  0  0
  8  9  1  0  0  0
  8 10  1  0  0  0
  8 44  1  0  0  0
 10 11  1  0  0  0
 10 12  1  0  0  0
 10 13  1  0  0  0
 13 14  1  0  0  0
 14 15  1  0  0  0
 14 23  1  0  0  0
 14 16  1  0  0  0
 16 17  1  0  0  0
 16 18  1  0  0  0
 16 42  1  0  0  0
 18 19  1  0  0  0
 19 20  1  0  0  0
 19 21  1  0  0  0
 19 27  1  0  0  0
 21 22  1  0  0  0
 21 23  1  0  0  0
 21 26  1  0  0  0
 23 24  1  0  0  0
 23 25  1  0  0  0
 25 50  1  0  0  0
 26 51  1  0  0  0
 26 52  1  0  0  0
 26 69  1  0  0  0
 27 28  1  0  0  0
 28 29  1  0  0  0
 28 30  1  0  0  0
 28 35  1  0  0  0
 30 31  1  0  0  0
 30 32  1  0  0  0
 30 34  1  0  0  0
 32 33  1  0  0  0
 32 53  1  0  0  0
 32 54  1  0  0  0
 33 55  1  0  0  0
 34 56  1  0  0  0
 35 36  1  0  0  0
 35 37  1  0  0  0
 35 41  1  0  0  0
 37 38  1  0  0  0
 37 40  1  0  0  0
 37 70  1  0  0  0
 38 39  2  0  0  0
 38 57  1  0  0  0
 40 67  1  0  0  0
 40 68  1  0  0  0
 40 71  1  0  0  0
 41 58  1  0  0  0
 42 43  1  0  0  0
 42 59  1  0  0  0
 42 60  1  0  0  0
 43 61  1  0  0  0
 44 62  1  0  0  0
 44 66  1  0  0  0
 45 63  1  0  0  0
 46 64  1  0  0  0
 47 65  1  0  0  0
M  CHG  2  26   1  40   1
M  END
> <s_m_entry_id>
43

> <s_m_entry_name>
biosynth_p1.0.sdf.36

> <s_m_Source_Path>
/Users/Sebastito/Downloads

> <s_m_Source_File>
biosynth_p1.0.sdf.gz

> <i_m_Source_File_Index>
36

> <chiral flag>
1

> <version>
0

> <i_m_ct_enhanced_stereo_status>
0

> <s_m_source_file>
ligprep_vs.maegz

> <i_m_source_file_index>
36

> <i_lp_mmshare_version>
37011

> <r_epik_Ionization_Penalty>
4.02661

> <r_epik_Ionization_Penalty_Charging>
0.657324

> <r_epik_Ionization_Penalty_Neutral>
3.36928

> <r_epik_State_Penalty>
1.08035

> <r_epik_Charging_Adjusted_Penalty>
1.73767

> <i_epik_Tot_Q>
2

> <i_epik_Tot_abs_Q>
2

> <s_epik_Chemistry_Notes>
This compound contains an acetal/aminal-like group ( X-CH(R)-Y where X, Y are N, S, or O) that may be acid/base labile, releasing an aldehyde.

> <i_f3d_flags>
0

> <s_lp_Force_Field>
OPLS_2005

> <r_lp_Energy>
74.3602

> <b_lp_Chiralities_Consistent>
1

> <s_lp_Variant>
ZINC98231169-3

$$$$
ZINC98231169
                    3D
 Structure written by MMmdl.
 70 71  0  0  1  0            999 V2000
   -5.2564   -0.0750    5.6787 C   0  0  0  0  0  0
   -5.4789    1.0216    4.6183 C   0  0  2  0  0  0
   -5.1026    1.9574    5.0367 H   0  0  0  0  0  0
   -6.9402    1.2186    4.1692 C   0  0  2  0  0  0
   -7.3616    0.2684    3.8379 H   0  0  0  0  0  0
   -7.0106    2.2477    3.0261 C   0  0  1  0  0  0
   -6.8436    3.2545    3.4135 H   0  0  0  0  0  0
   -5.9935    1.9360    1.9040 C   0  0  2  0  0  0
   -6.2764    1.0142    1.3933 H   0  0  0  0  0  0
   -4.5971    1.7109    2.5294 C   0  0  1  0  0  0
   -4.2156    2.6293    2.9816 H   0  0  0  0  0  0
   -4.6744    0.7057    3.4925 O   0  0  0  0  0  0
   -3.7514    1.3094    1.4989 O   0  0  0  0  0  0
   -2.3724    1.2225    1.8428 C   0  0  2  0  0  0
   -2.1550    1.5721    2.8551 H   0  0  0  0  0  0
   -1.6247    2.1112    0.8224 C   0  0  2  0  0  0
   -1.9720    1.8715   -0.1851 H   0  0  0  0  0  0
   -0.2307    1.8504    0.9235 O   0  0  0  0  0  0
    0.1319    0.5541    0.5616 C   0  0  2  0  0  0
   -0.2731    0.3022   -0.4198 H   0  0  0  0  0  0
   -0.4174   -0.4001    1.6363 C   0  0  1  0  0  0
    0.0239   -0.1192    2.5943 H   0  0  0  0  0  0
   -1.9520   -0.2540    1.6841 C   0  0  1  0  0  0
   -2.3973   -0.6717    0.7795 H   0  0  0  0  0  0
   -2.4038   -0.9767    2.8133 O   0  0  0  0  0  0
   -0.0401   -1.7928    1.3292 N   0  3  0  0  0  0
    1.5181    0.4066    0.5354 O   0  0  0  0  0  0
    2.2718    1.3385   -0.2464 C   0  0  1  0  0  0
    2.0703    2.3001    0.2245 H   0  0  0  0  0  0
    3.7821    1.0873    0.0051 C   0  0  1  0  0  0
    4.3488    1.8602   -0.5149 H   0  0  0  0  0  0
    4.1467    1.1355    1.5005 C   0  0  0  0  0  0
    5.5421    1.2790    1.6589 O   0  0  0  0  0  0
    4.1812   -0.1628   -0.5227 O   0  0  0  0  0  0
    1.8155    1.4654   -1.7401 C   0  0  1  0  0  0
    0.7453    1.6655   -1.7869 H   0  0  0  0  0  0
    2.5288    2.5702   -2.5697 C   0  0  2  0  0  0
    2.5264    3.9238   -1.8488 C   0  0  0  0  0  0
    1.5131    4.4661   -1.4096 O   0  0  0  0  0  0
    1.9039    2.7266   -3.8946 N   0  0  0  0  0  0
    2.0653    0.2362   -2.3948 O   0  0  0  0  0  0
   -1.8229    3.6131    1.0885 C   0  0  0  0  0  0
   -1.4979    4.3544   -0.0681 O   0  0  0  0  0  0
   -5.9322    3.0536    0.9442 N   0  0  0  0  0  0
   -8.3075    2.1578    2.4670 O   0  0  0  0  0  0
   -7.6852    1.7096    5.2681 O   0  0  0  0  0  0
   -5.8843   -1.2904    5.3247 O   0  0  0  0  0  0
   -4.1911   -0.2478    5.8351 H   0  0  0  0  0  0
   -5.6684    0.2467    6.6356 H   0  0  0  0  0  0
   -3.3380   -0.8493    2.8971 H   0  0  0  0  0  0
   -0.4196   -2.0583    0.4321 H   0  0  0  0  0  0
   -0.4087   -2.4020    2.0456 H   0  0  0  0  0  0
    3.6740    1.9936    1.9794 H   0  0  0  0  0  0
    3.8015    0.2442    2.0258 H   0  0  0  0  0  0
    5.9654    0.5376    1.2528 H   0  0  0  0  0  0
    3.9266   -0.1979   -1.4329 H   0  0  0  0  0  0
    3.5197    4.3662   -1.7729 H   0  0  0  0  0  0
    1.7716    0.3133   -3.2905 H   0  0  0  0  0  0
   -2.8661    3.8275    1.3196 H   0  0  0  0  0  0
   -1.2281    3.9512    1.9376 H   0  0  0  0  0  0
   -0.5782    4.2374   -0.2543 H   0  0  0  0  0  0
   -5.6844    3.9199    1.4196 H   0  0  0  0  0  0
   -8.9390    2.3047    3.1546 H   0  0  0  0  0  0
   -7.3131    2.5351    5.5382 H   0  0  0  0  0  0
   -5.7598   -1.9099    6.0278 H   0  0  0  0  0  0
   -5.2109    2.8811    0.2455 H   0  0  0  0  0  0
    0.9379    3.0374   -3.7983 H   0  0  0  0  0  0
    2.3948    3.4348   -4.4389 H   0  0  0  0  0  0
    0.9669   -1.8681    1.3053 H   0  0  0  0  0  0
    3.5698    2.2763   -2.7071 H   0  0  0  0  0  0
  1  2  1  0  0  0
  1 47  1  0  0  0
  1 48  1  0  0  0
  1 49  1  0  0  0
  2  3  1  0  0  0
  2 12  1  0  0  0
  2  4  1  0  0  0
  4  5  1  0  0  0
  4  6  1  0  0  0
  4 46  1  0  0  0
  6  7  1  0  0  0
  6  8  1  0  0  0
  6 45  1  0  0  0
  8  9  1  0  0  0
  8 10  1  0  0  0
  8 44  1  0  0  0
 10 11  1  0  0  0
 10 12  1  0  0  0
 10 13  1  0  0  0
 13 14  1  0  0  0
 14 15  1  0  0  0
 14 23  1  0  0  0
 14 16  1  0  0  0
 16 17  1  0  0  0
 16 18  1  0  0  0
 16 42  1  0  0  0
 18 19  1  0  0  0
 19 20  1  0  0  0
 19 21  1  0  0  0
 19 27  1  0  0  0
 21 22  1  0  0  0
 21 23  1  0  0  0
 21 26  1  0  0  0
 23 24  1  0  0  0
 23 25  1  0  0  0
 25 50  1  0  0  0
 26 51  1  0  0  0
 26 52  1  0  0  0
 26 69  1  0  0  0
 27 28  1  0  0  0
 28 29  1  0  0  0
 28 30  1  0  0  0
 28 35  1  0  0  0
 30 31  1  0  0  0
 30 32  1  0  0  0
 30 34  1  0  0  0
 32 33  1  0  0  0
 32 53  1  0  0  0
 32 54  1  0  0  0
 33 55  1  0  0  0
 34 56  1  0  0  0
 35 36  1  0  0  0
 35 37  1  0  0  0
 35 41  1  0  0  0
 37 38  1  0  0  0
 37 40  1  0  0  0
 37 70  1  0  0  0
 38 39  2  0  0  0
 38 57  1  0  0  0
 40 67  1  0  0  0
 40 68  1  0  0  0
 41 58  1  0  0  0
 42 43  1  0  0  0
 42 59  1  0  0  0
 42 60  1  0  0  0
 43 61  1  0  0  0
 44 62  1  0  0  0
 44 66  1  0  0  0
 45 63  1  0  0  0
 46 64  1  0  0  0
 47 65  1  0  0  0
M  CHG  1  26   1
M  END
> <s_m_entry_id>
43

> <s_m_entry_name>
biosynth_p1.0.sdf.36

> <s_m_Source_Path>
/Users/Sebastito/Downloads

> <s_m_Source_File>
biosynth_p1.0.sdf.gz

> <i_m_Source_File_Index>
36

> <chiral flag>
1

> <version>
0

> <i_m_ct_enhanced_stereo_status>
0

> <s_m_source_file>
ligprep_vs.maegz

> <i_m_source_file_index>
36

> <i_lp_mmshare_version>
37011

> <r_epik_Ionization_Penalty>
1.38

> <r_epik_Ionization_Penalty_Charging>
0.268472

> <r_epik_Ionization_Penalty_Neutral>
1.11152

> <r_epik_State_Penalty>
1.13723

> <r_epik_Charging_Adjusted_Penalty>
1.40571

> <i_epik_Tot_Q>
1

> <i_epik_Tot_abs_Q>
1

> <s_epik_Chemistry_Notes>
This compound contains an acetal/aminal-like group ( X-CH(R)-Y where X, Y are N, S, or O) that may be acid/base labile, releasing an aldehyde.

> <i_f3d_flags>
0

> <s_lp_Force_Field>
OPLS_2005

> <r_lp_Energy>
78.043

> <b_lp_Chiralities_Consistent>
1

> <s_lp_Variant>
ZINC98231169-4

$$$$
ZINC98231169
                    3D
 Structure written by MMmdl.
 70 71  0  0  1  0            999 V2000
   -5.1446    0.1943    5.8307 C   0  0  0  0  0  0
   -5.4291    1.1715    4.6724 C   0  0  2  0  0  0
   -5.0588    2.1517    4.9797 H   0  0  0  0  0  0
   -6.9092    1.2954    4.2582 C   0  0  2  0  0  0
   -7.3195    0.3112    4.0271 H   0  0  0  0  0  0
   -7.0366    2.2122    3.0287 C   0  0  1  0  0  0
   -6.8597    3.2513    3.3127 H   0  0  0  0  0  0
   -6.0624    1.7959    1.9043 C   0  0  2  0  0  0
   -6.3455    0.8167    1.5152 H   0  0  0  0  0  0
   -4.6380    1.6700    2.4953 C   0  0  1  0  0  0
   -4.2650    2.6349    2.8451 H   0  0  0  0  0  0
   -4.6581    0.7601    3.5538 O   0  0  0  0  0  0
   -3.8119    1.1951    1.4811 O   0  0  0  0  0  0
   -2.4321    1.1018    1.8202 C   0  0  2  0  0  0
   -2.2298    1.3231    2.8711 H   0  0  0  0  0  0
   -1.6640    2.1064    0.9343 C   0  0  2  0  0  0
   -1.9634    1.9988   -0.1103 H   0  0  0  0  0  0
   -0.2759    1.8231    1.0275 O   0  0  0  0  0  0
    0.0943    0.5877    0.5006 C   0  0  2  0  0  0
   -0.2819    0.4774   -0.5175 H   0  0  0  0  0  0
   -0.4780   -0.5210    1.4061 C   0  0  1  0  0  0
   -0.0269   -0.4048    2.3929 H   0  0  0  0  0  0
   -2.0103   -0.3479    1.5023 C   0  0  1  0  0  0
   -2.4804   -0.6756    0.5733 H   0  0  0  0  0  0
   -2.4503   -1.1582    2.5760 O   0  0  0  0  0  0
   -0.1501   -1.8440    0.8464 N   0  0  0  0  0  0
    1.4827    0.4511    0.5077 O   0  0  0  0  0  0
    2.2566    1.4419   -0.1742 C   0  0  1  0  0  0
    2.0129    2.3790    0.3272 H   0  0  0  0  0  0
    3.7587    1.2087    0.1454 C   0  0  1  0  0  0
    4.3207    2.0738   -0.2076 H   0  0  0  0  0  0
    4.0226    1.0461    1.6544 C   0  0  0  0  0  0
    5.3836    1.2917    1.9430 O   0  0  0  0  0  0
    4.2652    0.0766   -0.5356 O   0  0  0  0  0  0
    1.8722    1.6340   -1.6769 C   0  0  1  0  0  0
    0.8164    1.8936   -1.7545 H   0  0  0  0  0  0
    2.6705    2.7343   -2.4213 C   0  0  2  0  0  0
    2.5421    4.1040   -1.7483 C   0  0  0  0  0  0
    3.4126    4.5939   -1.0332 O   0  0  0  0  0  0
    2.1701    2.9147   -3.7968 N   0  3  0  0  0  0
    2.0658    0.4150   -2.3700 O   0  0  0  0  0  0
   -1.8360    3.5764    1.3599 C   0  0  0  0  0  0
   -3.0313    4.1216    0.8443 O   0  0  0  0  0  0
   -6.0795    2.7963    0.8221 N   0  0  0  0  0  0
   -8.3546    2.0687    2.5330 O   0  0  0  0  0  0
   -7.6309    1.8689    5.3319 O   0  0  0  0  0  0
   -5.8093   -1.0411    5.6633 O   0  0  0  0  0  0
   -4.0729    0.0210    5.9320 H   0  0  0  0  0  0
   -5.4844    0.6283    6.7714 H   0  0  0  0  0  0
   -2.0625   -0.8358    3.3748 H   0  0  0  0  0  0
    0.8603   -1.9681    0.7994 H   0  0  0  0  0  0
   -0.5157   -2.5822    1.4464 H   0  0  0  0  0  0
    3.4340    1.7676    2.2220 H   0  0  0  0  0  0
    3.7379    0.0533    2.0056 H   0  0  0  0  0  0
    5.5229    1.1656    2.8694 H   0  0  0  0  0  0
    4.3617    0.2888   -1.4504 H   0  0  0  0  0  0
    1.6013    4.6091   -1.9696 H   0  0  0  0  0  0
    2.9318    0.0887   -2.1781 H   0  0  0  0  0  0
   -1.8101    3.6828    2.4447 H   0  0  0  0  0  0
   -1.0158    4.1753    0.9625 H   0  0  0  0  0  0
   -3.0928    5.0247    1.1161 H   0  0  0  0  0  0
   -7.0280    2.9094    0.4675 H   0  0  0  0  0  0
   -8.9567    2.2978    3.2247 H   0  0  0  0  0  0
   -7.5915    1.2757    6.0667 H   0  0  0  0  0  0
   -5.5874   -1.6039    6.3895 H   0  0  0  0  0  0
   -5.7873    3.7058    1.1755 H   0  0  0  0  0  0
    2.7226    3.6164   -4.2688 H   0  0  0  0  0  0
    1.2039    3.2075   -3.7688 H   0  0  0  0  0  0
    3.7240    2.4582   -2.4758 H   0  0  0  0  0  0
    2.2392    2.0380   -4.2940 H   0  0  0  0  0  0
  1  2  1  0  0  0
  1 47  1  0  0  0
  1 48  1  0  0  0
  1 49  1  0  0  0
  2  3  1  0  0  0
  2 12  1  0  0  0
  2  4  1  0  0  0
  4  5  1  0  0  0
  4  6  1  0  0  0
  4 46  1  0  0  0
  6  7  1  0  0  0
  6  8  1  0  0  0
  6 45  1  0  0  0
  8  9  1  0  0  0
  8 10  1  0  0  0
  8 44  1  0  0  0
 10 11  1  0  0  0
 10 12  1  0  0  0
 10 13  1  0  0  0
 13 14  1  0  0  0
 14 15  1  0  0  0
 14 23  1  0  0  0
 14 16  1  0  0  0
 16 17  1  0  0  0
 16 18  1  0  0  0
 16 42  1  0  0  0
 18 19  1  0  0  0
 19 20  1  0  0  0
 19 21  1  0  0  0
 19 27  1  0  0  0
 21 22  1  0  0  0
 21 23  1  0  0  0
 21 26  1  0  0  0
 23 24  1  0  0  0
 23 25  1  0  0  0
 25 50  1  0  0  0
 26 51  1  0  0  0
 26 52  1  0  0  0
 27 28  1  0  0  0
 28 29  1  0  0  0
 28 30  1  0  0  0
 28 35  1  0  0  0
 30 31  1  0  0  0
 30 32  1  0  0  0
 30 34  1  0  0  0
 32 33  1  0  0  0
 32 53  1  0  0  0
 32 54  1  0  0  0
 33 55  1  0  0  0
 34 56  1  0  0  0
 35 36  1  0  0  0
 35 37  1  0  0  0
 35 41  1  0  0  0
 37 38  1  0  0  0
 37 40  1  0  0  0
 37 69  1  0  0  0
 38 39  2  0  0  0
 38 57  1  0  0  0
 40 67  1  0  0  0
 40 68  1  0  0  0
 40 70  1  0  0  0
 41 58  1  0  0  0
 42 43  1  0  0  0
 42 59  1  0  0  0
 42 60  1  0  0  0
 43 61  1  0  0  0
 44 62  1  0  0  0
 44 66  1  0  0  0
 45 63  1  0  0  0
 46 64  1  0  0  0
 47 65  1  0  0  0
M  CHG  1  40   1
M  END
> <s_m_entry_id>
43

> <s_m_entry_name>
biosynth_p1.0.sdf.36

> <s_m_Source_Path>
/Users/Sebastito/Downloads

> <s_m_Source_File>
biosynth_p1.0.sdf.gz

> <i_m_Source_File_Index>
36

> <chiral flag>
1

> <version>
0

> <i_m_ct_enhanced_stereo_status>
0

> <s_m_source_file>
ligprep_vs.maegz

> <i_m_source_file_index>
36

> <i_lp_mmshare_version>
37011

> <r_epik_Ionization_Penalty>
4.2582

> <r_epik_Ionization_Penalty_Charging>
0.372387

> <r_epik_Ionization_Penalty_Neutral>
3.88581

> <r_epik_State_Penalty>
1.42276

> <r_epik_Charging_Adjusted_Penalty>
1.79515

> <i_epik_Tot_Q>
1

> <i_epik_Tot_abs_Q>
1

> <s_epik_Chemistry_Notes>
This compound contains an acetal/aminal-like group ( X-CH(R)-Y where X, Y are N, S, or O) that may be acid/base labile, releasing an aldehyde.

> <i_f3d_flags>
0

> <s_lp_Force_Field>
OPLS_2005

> <r_lp_Energy>
78.7125

> <b_lp_Chiralities_Consistent>
1

> <s_lp_Variant>
ZINC98231169-5

$$$$
ZINC98231169
                    3D
 Structure written by MMmdl.
 69 70  0  0  1  0            999 V2000
   -5.1887   -0.1077    5.6810 C   0  0  0  0  0  0
   -5.3964    1.0411    4.6777 C   0  0  2  0  0  0
   -4.9845    1.9689    5.0816 H   0  0  0  0  0  0
   -6.8762    1.2429    4.2960 C   0  0  2  0  0  0
   -7.3131    0.2825    4.0173 H   0  0  0  0  0  0
   -7.0074    2.2467    3.1326 C   0  0  1  0  0  0
   -6.8115    3.2599    3.4889 H   0  0  0  0  0  0
   -6.0581    1.9076    1.9615 C   0  0  2  0  0  0
   -6.3818    0.9855    1.4762 H   0  0  0  0  0  0
   -4.6409    1.6640    2.5233 C   0  0  1  0  0  0
   -4.2232    2.5785    2.9508 H   0  0  0  0  0  0
   -4.7066    0.6685    3.4950 O   0  0  0  0  0  0
   -3.8442    1.2349    1.4655 O   0  0  0  0  0  0
   -2.4535    1.1432    1.7607 C   0  0  2  0  0  0
   -2.2017    1.5029    2.7615 H   0  0  0  0  0  0
   -1.7300    2.0174    0.7199 C   0  0  2  0  0  0
   -2.0610    1.7425   -0.2840 H   0  0  0  0  0  0
   -0.3401    1.7786    0.8675 O   0  0  0  0  0  0
    0.0581    0.5016    0.4804 C   0  0  2  0  0  0
   -0.2985    0.2824   -0.5273 H   0  0  0  0  0  0
   -0.5051   -0.5175    1.4941 C   0  0  1  0  0  0
   -0.0361   -0.3098    2.4572 H   0  0  0  0  0  0
   -2.0372   -0.3347    1.6066 C   0  0  1  0  0  0
   -2.5327   -0.7684    0.7365 H   0  0  0  0  0  0
   -2.4431   -1.0087    2.7825 O   0  0  0  0  0  0
   -0.1843   -1.8869    1.0540 N   0  0  0  0  0  0
    1.4481    0.3901    0.5143 O   0  0  0  0  0  0
    2.2150    1.3631   -0.2022 C   0  0  1  0  0  0
    1.9518    2.3119    0.2643 H   0  0  0  0  0  0
    3.7190    1.1583    0.1349 C   0  0  1  0  0  0
    4.2922    1.9834   -0.2878 H   0  0  0  0  0  0
    4.0179    1.1019    1.6457 C   0  0  0  0  0  0
    3.7023    2.3293    2.2692 O   0  0  0  0  0  0
    4.2270   -0.0170   -0.4621 O   0  0  0  0  0  0
    1.8353    1.4996   -1.7147 C   0  0  1  0  0  0
    0.7711    1.7164   -1.8075 H   0  0  0  0  0  0
    2.6077    2.5892   -2.5099 C   0  0  2  0  0  0
    2.6307    3.9348   -1.7742 C   0  0  0  0  0  0
    1.6226    4.5697   -1.4676 O   0  0  0  0  0  0
    2.0286    2.7787   -3.8517 N   0  0  0  0  0  0
    2.0929    0.2652   -2.3571 O   0  0  0  0  0  0
   -1.9544    3.5222    0.9418 C   0  0  0  0  0  0
   -1.6146    4.2344   -0.2291 O   0  0  0  0  0  0
   -6.0322    3.0152    0.9892 N   0  0  0  0  0  0
   -8.3323    2.1605    2.6414 O   0  0  0  0  0  0
   -7.5632    1.7668    5.4173 O   0  0  0  0  0  0
   -3.9080   -0.0094    6.2669 O   0  0  0  0  0  0
   -5.9170   -0.0515    6.4901 H   0  0  0  0  0  0
   -5.3126   -1.0807    5.2040 H   0  0  0  0  0  0
   -3.3776   -0.9024    2.8775 H   0  0  0  0  0  0
   -0.6145   -2.0786    0.1506 H   0  0  0  0  0  0
    0.8217   -1.9846    0.9249 H   0  0  0  0  0  0
    3.4633    0.2977    2.1301 H   0  0  0  0  0  0
    5.0771    0.9035    1.8136 H   0  0  0  0  0  0
    3.8895    2.2534    3.1924 H   0  0  0  0  0  0
    3.7035   -0.7479   -0.1706 H   0  0  0  0  0  0
    3.6412    4.2829   -1.5599 H   0  0  0  0  0  0
    1.8271    0.3418   -3.2610 H   0  0  0  0  0  0
   -3.0042    3.7297    1.1474 H   0  0  0  0  0  0
   -1.3790    3.8898    1.7919 H   0  0  0  0  0  0
   -1.7479    5.1562   -0.0699 H   0  0  0  0  0  0
   -6.9703    3.1863    0.6295 H   0  0  0  0  0  0
   -8.4875    1.2757    2.3486 H   0  0  0  0  0  0
   -7.5083    1.1426    6.1246 H   0  0  0  0  0  0
   -3.2588   -0.0996    5.5857 H   0  0  0  0  0  0
   -5.7342    3.8775    1.4427 H   0  0  0  0  0  0
    1.0647    3.1016   -3.7770 H   0  0  0  0  0  0
    2.5460    3.4907   -4.3651 H   0  0  0  0  0  0
    3.6425    2.2621   -2.6177 H   0  0  0  0  0  0
  1  2  1  0  0  0
  1 47  1  0  0  0
  1 48  1  0  0  0
  1 49  1  0  0  0
  2  3  1  0  0  0
  2 12  1  0  0  0
  2  4  1  0  0  0
  4  5  1  0  0  0
  4  6  1  0  0  0
  4 46  1  0  0  0
  6  7  1  0  0  0
  6  8  1  0  0  0
  6 45  1  0  0  0
  8  9  1  0  0  0
  8 10  1  0  0  0
  8 44  1  0  0  0
 10 11  1  0  0  0
 10 12  1  0  0  0
 10 13  1  0  0  0
 13 14  1  0  0  0
 14 15  1  0  0  0
 14 23  1  0  0  0
 14 16  1  0  0  0
 16 17  1  0  0  0
 16 18  1  0  0  0
 16 42  1  0  0  0
 18 19  1  0  0  0
 19 20  1  0  0  0
 19 21  1  0  0  0
 19 27  1  0  0  0
 21 22  1  0  0  0
 21 23  1  0  0  0
 21 26  1  0  0  0
 23 24  1  0  0  0
 23 25  1  0  0  0
 25 50  1  0  0  0
 26 51  1  0  0  0
 26 52  1  0  0  0
 27 28  1  0  0  0
 28 29  1  0  0  0
 28 30  1  0  0  0
 28 35  1  0  0  0
 30 31  1  0  0  0
 30 32  1  0  0  0
 30 34  1  0  0  0
 32 33  1  0  0  0
 32 53  1  0  0  0
 32 54  1  0  0  0
 33 55  1  0  0  0
 34 56  1  0  0  0
 35 36  1  0  0  0
 35 37  1  0  0  0
 35 41  1  0  0  0
 37 38  1  0  0  0
 37 40  1  0  0  0
 37 69  1  0  0  0
 38 39  2  0  0  0
 38 57  1  0  0  0
 40 67  1  0  0  0
 40 68  1  0  0  0
 41 58  1  0  0  0
 42 43  1  0  0  0
 42 59  1  0  0  0
 42 60  1  0  0  0
 43 61  1  0  0  0
 44 62  1  0  0  0
 44 66  1  0  0  0
 45 63  1  0  0  0
 46 64  1  0  0  0
 47 65  1  0  0  0
M  END
> <s_m_entry_id>
43

> <s_m_entry_name>
biosynth_p1.0.sdf.36

> <s_m_Source_Path>
/Users/Sebastito/Downloads

> <s_m_Source_File>
biosynth_p1.0.sdf.gz

> <i_m_Source_File_Index>
36

> <chiral flag>
1

> <version>
0

> <i_m_ct_enhanced_stereo_status>
0

> <s_m_source_file>
ligprep_vs.maegz

> <i_m_source_file_index>
36

> <i_lp_mmshare_version>
37011

> <r_epik_Ionization_Penalty>
1.75103

> <r_epik_Ionization_Penalty_Charging>
0

> <r_epik_Ionization_Penalty_Neutral>
1.75103

> <r_epik_State_Penalty>
1.4979

> <r_epik_Charging_Adjusted_Penalty>
1.4979

> <i_epik_Tot_Q>
0

> <i_epik_Tot_abs_Q>
0

> <s_epik_Chemistry_Notes>
This compound contains an acetal/aminal-like group ( X-CH(R)-Y where X, Y are N, S, or O) that may be acid/base labile, releasing an aldehyde.

> <i_f3d_flags>
0

> <s_lp_Force_Field>
OPLS_2005

> <r_lp_Energy>
78.9765

> <b_lp_Chiralities_Consistent>
1

> <s_lp_Variant>
ZINC98231169-6

$$$$
ZINC98231169
                    3D
 Structure written by MMmdl.
 71 72  0  0  1  0            999 V2000
   -4.7611    0.4275    5.8424 C   0  0  0  0  0  0
   -5.0752    1.3693    4.6641 C   0  0  2  0  0  0
   -4.6064    2.3302    4.8863 H   0  0  0  0  0  0
   -6.5788    1.5974    4.3867 C   0  0  2  0  0  0
   -7.0954    0.6432    4.2739 H   0  0  0  0  0  0
   -6.7534    2.4378    3.1088 C   0  0  1  0  0  0
   -6.4375    3.4675    3.2875 H   0  0  0  0  0  0
   -5.9413    1.8350    1.9446 C   0  0  2  0  0  0
   -6.3231    0.8464    1.6843 H   0  0  0  0  0  0
   -4.4712    1.6802    2.3897 C   0  0  1  0  0  0
   -4.0282    2.6486    2.6333 H   0  0  0  0  0  0
   -4.4292    0.8476    3.5085 O   0  0  0  0  0  0
   -3.7727    1.1055    1.3299 O   0  0  0  0  0  0
   -2.3631    1.0030    1.5172 C   0  0  2  0  0  0
   -2.0195    1.4491    2.4535 H   0  0  0  0  0  0
   -1.7122    1.7452    0.3281 C   0  0  2  0  0  0
   -2.1656    1.3980   -0.6030 H   0  0  0  0  0  0
   -0.3199    1.4580    0.3217 O   0  0  0  0  0  0
   -0.0126    0.1218    0.0758 C   0  0  2  0  0  0
   -0.5058   -0.2126   -0.8390 H   0  0  0  0  0  0
   -0.4761   -0.6999    1.2900 C   0  0  1  0  0  0
    0.0672   -0.3424    2.1665 H   0  0  0  0  0  0
   -1.9950   -0.4960    1.4731 C   0  0  1  0  0  0
   -2.5365   -0.9880    0.6632 H   0  0  0  0  0  0
   -2.3541   -1.0871    2.7075 O   0  0  0  0  0  0
   -0.1661   -2.1276    1.0828 N   0  3  0  0  0  0
    1.3656   -0.0407   -0.0415 O   0  0  0  0  0  0
    1.9458    0.4701   -1.2419 C   0  0  1  0  0  0
    1.3257    1.3141   -1.5442 H   0  0  0  0  0  0
    3.3324    1.1009   -0.9340 C   0  0  1  0  0  0
    3.6990    1.5921   -1.8358 H   0  0  0  0  0  0
    3.2981    2.1483    0.1957 C   0  0  0  0  0  0
    2.4906    3.2505   -0.1617 O   0  0  0  0  0  0
    4.2960    0.1222   -0.6034 O   0  0  0  0  0  0
    1.8640   -0.5814   -2.3942 C   0  0  1  0  0  0
    0.8330   -0.9192   -2.5002 H   0  0  0  0  0  0
    2.3687   -0.0964   -3.7819 C   0  0  2  0  0  0
    1.7447    1.2452   -4.1846 C   0  0  0  0  0  0
    0.5334    1.4589   -4.2096 O   0  0  0  0  0  0
    2.0891   -1.0948   -4.8288 N   0  0  0  0  0  0
    2.6424   -1.7084   -2.0380 O   0  0  0  0  0  0
   -1.8507    3.2739    0.4282 C   0  0  0  0  0  0
   -1.6611    3.8539   -0.8444 O   0  0  0  0  0  0
   -6.0269    2.7083    0.7581 N   0  3  0  0  0  0
   -8.1216    2.4254    2.7439 O   0  0  0  0  0  0
   -7.1324    2.3085    5.4768 O   0  0  0  0  0  0
   -5.4802   -0.7847    5.7505 O   0  0  0  0  0  0
   -3.6929    0.2149    5.8926 H   0  0  0  0  0  0
   -5.0322    0.9066    6.7835 H   0  0  0  0  0  0
   -1.9407   -0.6055    3.4081 H   0  0  0  0  0  0
   -0.6506   -2.4652    0.2636 H   0  0  0  0  0  0
   -0.4614   -2.6571    1.8907 H   0  0  0  0  0  0
    2.9256    1.7160    1.1250 H   0  0  0  0  0  0
    4.3039    2.5194    0.3969 H   0  0  0  0  0  0
    2.5279    3.8887    0.5344 H   0  0  0  0  0  0
    3.9947   -0.3508    0.1569 H   0  0  0  0  0  0
    2.4877    1.9936   -4.4600 H   0  0  0  0  0  0
    2.5861   -2.3402   -2.7392 H   0  0  0  0  0  0
   -2.8509    3.5526    0.7576 H   0  0  0  0  0  0
   -1.1448    3.6917    1.1468 H   0  0  0  0  0  0
   -1.6889    4.7948   -0.7572 H   0  0  0  0  0  0
   -5.6606    3.6223    0.9820 H   0  0  0  0  0  0
   -8.4224    1.5294    2.7216 H   0  0  0  0  0  0
   -7.0779    1.7660    6.2493 H   0  0  0  0  0  0
   -5.1951   -1.2453    4.9759 H   0  0  0  0  0  0
   -6.9937    2.7951    0.4784 H   0  0  0  0  0  0
    1.0842   -1.2296   -4.9324 H   0  0  0  0  0  0
    2.4435   -0.7748   -5.7292 H   0  0  0  0  0  0
    0.8297   -2.2369    0.9516 H   0  0  0  0  0  0
    3.4471    0.0525   -3.7187 H   0  0  0  0  0  0
   -5.4919    2.3045    0.0027 H   0  0  0  0  0  0
  1  2  1  0  0  0
  1 47  1  0  0  0
  1 48  1  0  0  0
  1 49  1  0  0  0
  2  3  1  0  0  0
  2 12  1  0  0  0
  2  4  1  0  0  0
  4  5  1  0  0  0
  4  6  1  0  0  0
  4 46  1  0  0  0
  6  7  1  0  0  0
  6  8  1  0  0  0
  6 45  1  0  0  0
  8  9  1  0  0  0
  8 10  1  0  0  0
  8 44  1  0  0  0
 10 11  1  0  0  0
 10 12  1  0  0  0
 10 13  1  0  0  0
 13 14  1  0  0  0
 14 15  1  0  0  0
 14 23  1  0  0  0
 14 16  1  0  0  0
 16 17  1  0  0  0
 16 18  1  0  0  0
 16 42  1  0  0  0
 18 19  1  0  0  0
 19 20  1  0  0  0
 19 21  1  0  0  0
 19 27  1  0  0  0
 21 22  1  0  0  0
 21 23  1  0  0  0
 21 26  1  0  0  0
 23 24  1  0  0  0
 23 25  1  0  0  0
 25 50  1  0  0  0
 26 51  1  0  0  0
 26 52  1  0  0  0
 26 69  1  0  0  0
 27 28  1  0  0  0
 28 29  1  0  0  0
 28 30  1  0  0  0
 28 35  1  0  0  0
 30 31  1  0  0  0
 30 32  1  0  0  0
 30 34  1  0  0  0
 32 33  1  0  0  0
 32 53  1  0  0  0
 32 54  1  0  0  0
 33 55  1  0  0  0
 34 56  1  0  0  0
 35 36  1  0  0  0
 35 37  1  0  0  0
 35 41  1  0  0  0
 37 38  1  0  0  0
 37 40  1  0  0  0
 37 70  1  0  0  0
 38 39  2  0  0  0
 38 57  1  0  0  0
 40 67  1  0  0  0
 40 68  1  0  0  0
 41 58  1  0  0  0
 42 43  1  0  0  0
 42 59  1  0  0  0
 42 60  1  0  0  0
 43 61  1  0  0  0
 44 62  1  0  0  0
 44 66  1  0  0  0
 44 71  1  0  0  0
 45 63  1  0  0  0
 46 64  1  0  0  0
 47 65  1  0  0  0
M  CHG  2  26   1  44   1
M  END
> <s_m_entry_id>
44

> <s_m_entry_name>
biosynth_p1.0.sdf.37

> <s_m_Source_Path>
/Users/Sebastito/Downloads

> <s_m_Source_File>
biosynth_p1.0.sdf.gz

> <i_m_Source_File_Index>
37

> <chiral flag>
1

> <version>
0

> <i_m_ct_enhanced_stereo_status>
0

> <s_m_source_file>
ligprep_vs.maegz

> <i_m_source_file_index>
37

> <i_lp_mmshare_version>
37011

> <r_epik_Ionization_Penalty>
0.938878

> <r_epik_Ionization_Penalty_Charging>
0.505476

> <r_epik_Ionization_Penalty_Neutral>
0.433402

> <r_epik_State_Penalty>
0.656471

> <r_epik_Charging_Adjusted_Penalty>
1.16195

> <i_epik_Tot_Q>
2

> <i_epik_Tot_abs_Q>
2

> <s_epik_Chemistry_Notes>
This compound contains an acetal/aminal-like group ( X-CH(R)-Y where X, Y are N, S, or O) that may be acid/base labile, releasing an aldehyde.

> <i_f3d_flags>
0

> <s_lp_Force_Field>
OPLS_2005

> <r_lp_Energy>
68.6483

> <b_lp_Chiralities_Consistent>
1

> <s_lp_Variant>
ZINC98231169-1

$$$$
ZINC98231169
                    3D
 Structure written by MMmdl.
 70 71  0  0  1  0            999 V2000
   -5.4135   -0.5156    5.4403 C   0  0  0  0  0  0
   -5.4828    0.8173    4.6711 C   0  0  2  0  0  0
   -4.9430    1.5834    5.2320 H   0  0  0  0  0  0
   -6.9249    1.2875    4.3627 C   0  0  2  0  0  0
   -7.4919    0.4663    3.9208 H   0  0  0  0  0  0
   -6.9041    2.4919    3.4030 C   0  0  1  0  0  0
   -6.5281    3.3781    3.9176 H   0  0  0  0  0  0
   -6.0321    2.1884    2.1700 C   0  0  2  0  0  0
   -6.4623    1.3712    1.5880 H   0  0  0  0  0  0
   -4.6388    1.7487    2.6576 C   0  0  1  0  0  0
   -4.1525    2.5352    3.2390 H   0  0  0  0  0  0
   -4.7946    0.6062    3.4426 O   0  0  0  0  0  0
   -3.8707    1.4691    1.5310 O   0  0  0  0  0  0
   -2.5058    1.1618    1.7994 C   0  0  2  0  0  0
   -2.2765    1.1183    2.8673 H   0  0  0  0  0  0
   -1.6429    2.2587    1.1403 C   0  0  2  0  0  0
   -1.9420    2.4068    0.1004 H   0  0  0  0  0  0
   -0.2892    1.8349    1.1589 O   0  0  0  0  0  0
   -0.0209    0.7116    0.3805 C   0  0  2  0  0  0
   -0.3640    0.8752   -0.6430 H   0  0  0  0  0  0
   -0.7182   -0.5089    1.0146 C   0  0  1  0  0  0
   -0.2790   -0.6609    2.0018 H   0  0  0  0  0  0
   -2.2277   -0.2094    1.1509 C   0  0  1  0  0  0
   -2.7106   -0.2653    0.1738 H   0  0  0  0  0  0
   -2.7627   -1.1957    2.0121 O   0  0  0  0  0  0
   -0.5075   -1.6994    0.1712 N   0  0  0  0  0  0
    1.3485    0.4584    0.3925 O   0  0  0  0  0  0
    2.1484    1.3556   -0.3769 C   0  0  1  0  0  0
    1.6126    2.3051   -0.3976 H   0  0  0  0  0  0
    3.4671    1.6712    0.3824 C   0  0  1  0  0  0
    4.0097    2.4426   -0.1648 H   0  0  0  0  0  0
    3.2443    2.1760    1.8212 C   0  0  0  0  0  0
    2.5616    3.4127    1.8242 O   0  0  0  0  0  0
    4.3262    0.5509    0.4333 O   0  0  0  0  0  0
    2.2564    0.8687   -1.8567 C   0  0  1  0  0  0
    1.2538    0.6959   -2.2491 H   0  0  0  0  0  0
    3.0141    1.8196   -2.8247 C   0  0  2  0  0  0
    2.5105    3.2647   -2.7269 C   0  0  0  0  0  0
    1.3369    3.5961   -2.8895 O   0  0  0  0  0  0
    2.9037    1.3588   -4.2203 N   0  0  0  0  0  0
    2.9401   -0.3701   -1.8810 O   0  0  0  0  0  0
   -1.6761    3.6118    1.8739 C   0  0  0  0  0  0
   -2.8538    4.3337    1.5791 O   0  0  0  0  0  0
   -5.9233    3.3796    1.3073 N   0  3  0  0  0  0
   -8.2254    2.7330    2.9570 O   0  0  0  0  0  0
   -7.5491    1.6954    5.5657 O   0  0  0  0  0  0
   -5.7187   -0.3337    6.8071 O   0  0  0  0  0  0
   -6.0806   -1.2596    5.0043 H   0  0  0  0  0  0
   -4.4034   -0.9232    5.3849 H   0  0  0  0  0  0
   -2.5579   -2.0452    1.6514 H   0  0  0  0  0  0
   -0.8872   -1.5463   -0.7617 H   0  0  0  0  0  0
    0.4905   -1.8713    0.0533 H   0  0  0  0  0  0
    2.6810    1.4520    2.4113 H   0  0  0  0  0  0
    4.2017    2.3203    2.3233 H   0  0  0  0  0  0
    2.4639    3.6981    2.7199 H   0  0  0  0  0  0
    3.8595   -0.1636    0.8397 H   0  0  0  0  0  0
    3.3060    3.9775   -2.5095 H   0  0  0  0  0  0
    2.9635   -0.6778   -2.7745 H   0  0  0  0  0  0
   -1.5758    3.4809    2.9517 H   0  0  0  0  0  0
   -0.8343    4.2249    1.5498 H   0  0  0  0  0  0
   -2.7751    5.1954    1.9605 H   0  0  0  0  0  0
   -5.4980    4.1353    1.8244 H   0  0  0  0  0  0
   -8.7806    2.8450    3.7147 H   0  0  0  0  0  0
   -7.0280    2.3773    5.9620 H   0  0  0  0  0  0
   -6.6090   -0.0233    6.8771 H   0  0  0  0  0  0
   -6.8452    3.6545    1.0002 H   0  0  0  0  0  0
    1.9301    1.3688   -4.5211 H   0  0  0  0  0  0
    3.4189    1.9799   -4.8426 H   0  0  0  0  0  0
    4.0669    1.8241   -2.5397 H   0  0  0  0  0  0
   -5.3498    3.1586    0.5057 H   0  0  0  0  0  0
  1  2  1  0  0  0
  1 47  1  0  0  0
  1 48  1  0  0  0
  1 49  1  0  0  0
  2  3  1  0  0  0
  2 12  1  0  0  0
  2  4  1  0  0  0
  4  5  1  0  0  0
  4  6  1  0  0  0
  4 46  1  0  0  0
  6  7  1  0  0  0
  6  8  1  0  0  0
  6 45  1  0  0  0
  8  9  1  0  0  0
  8 10  1  0  0  0
  8 44  1  0  0  0
 10 11  1  0  0  0
 10 12  1  0  0  0
 10 13  1  0  0  0
 13 14  1  0  0  0
 14 15  1  0  0  0
 14 23  1  0  0  0
 14 16  1  0  0  0
 16 17  1  0  0  0
 16 18  1  0  0  0
 16 42  1  0  0  0
 18 19  1  0  0  0
 19 20  1  0  0  0
 19 21  1  0  0  0
 19 27  1  0  0  0
 21 22  1  0  0  0
 21 23  1  0  0  0
 21 26  1  0  0  0
 23 24  1  0  0  0
 23 25  1  0  0  0
 25 50  1  0  0  0
 26 51  1  0  0  0
 26 52  1  0  0  0
 27 28  1  0  0  0
 28 29  1  0  0  0
 28 30  1  0  0  0
 28 35  1  0  0  0
 30 31  1  0  0  0
 30 32  1  0  0  0
 30 34  1  0  0  0
 32 33  1  0  0  0
 32 53  1  0  0  0
 32 54  1  0  0  0
 33 55  1  0  0  0
 34 56  1  0  0  0
 35 36  1  0  0  0
 35 37  1  0  0  0
 35 41  1  0  0  0
 37 38  1  0  0  0
 37 40  1  0  0  0
 37 69  1  0  0  0
 38 39  2  0  0  0
 38 57  1  0  0  0
 40 67  1  0  0  0
 40 68  1  0  0  0
 41 58  1  0  0  0
 42 43  1  0  0  0
 42 59  1  0  0  0
 42 60  1  0  0  0
 43 61  1  0  0  0
 44 62  1  0  0  0
 44 66  1  0  0  0
 44 70  1  0  0  0
 45 63  1  0  0  0
 46 64  1  0  0  0
 47 65  1  0  0  0
M  CHG  1  44   1
M  END
> <s_m_entry_id>
44

> <s_m_entry_name>
biosynth_p1.0.sdf.37

> <s_m_Source_Path>
/Users/Sebastito/Downloads

> <s_m_Source_File>
biosynth_p1.0.sdf.gz

> <i_m_Source_File_Index>
37

> <chiral flag>
1

> <version>
0

> <i_m_ct_enhanced_stereo_status>
0

> <s_m_source_file>
ligprep_vs.maegz

> <i_m_source_file_index>
37

> <i_lp_mmshare_version>
37011

> <r_epik_Ionization_Penalty>
1.24947

> <r_epik_Ionization_Penalty_Charging>
0.216591

> <r_epik_Ionization_Penalty_Neutral>
1.03288

> <r_epik_State_Penalty>
0.980187

> <r_epik_Charging_Adjusted_Penalty>
1.19678

> <i_epik_Tot_Q>
1

> <i_epik_Tot_abs_Q>
1

> <s_epik_Chemistry_Notes>
This compound contains an acetal/aminal-like group ( X-CH(R)-Y where X, Y are N, S, or O) that may be acid/base labile, releasing an aldehyde.

> <i_f3d_flags>
0

> <s_lp_Force_Field>
OPLS_2005

> <r_lp_Energy>
68.0998

> <b_lp_Chiralities_Consistent>
1

> <s_lp_Variant>
ZINC98231169-2

$$$$
ZINC98231169
                    3D
 Structure written by MMmdl.
 71 72  0  0  1  0            999 V2000
   -3.8027    2.6582    6.0176 C   0  0  0  0  0  0
   -4.4651    2.6605    4.6280 C   0  0  2  0  0  0
   -4.3064    3.6255    4.1416 H   0  0  0  0  0  0
   -5.9730    2.3459    4.6875 C   0  0  2  0  0  0
   -6.1311    1.4423    5.2789 H   0  0  0  0  0  0
   -6.5453    2.1625    3.2685 C   0  0  1  0  0  0
   -6.6052    3.1267    2.7601 H   0  0  0  0  0  0
   -5.7000    1.1766    2.4313 C   0  0  2  0  0  0
   -5.7944    0.1685    2.8378 H   0  0  0  0  0  0
   -4.2124    1.5809    2.5355 C   0  0  1  0  0  0
   -4.0343    2.5545    2.0735 H   0  0  0  0  0  0
   -3.8449    1.6240    3.8792 O   0  0  0  0  0  0
   -3.4732    0.6029    1.8743 O   0  0  0  0  0  0
   -2.0897    0.8989    1.7124 C   0  0  2  0  0  0
   -1.7980    1.8558    2.1521 H   0  0  0  0  0  0
   -1.8181    0.9245    0.1924 C   0  0  2  0  0  0
   -2.2374    0.0254   -0.2645 H   0  0  0  0  0  0
   -0.4108    0.9579   -0.0033 O   0  0  0  0  0  0
    0.2552   -0.1974    0.3977 C   0  0  2  0  0  0
   -0.2073   -1.0812   -0.0480 H   0  0  0  0  0  0
    0.1847   -0.2447    1.9383 C   0  0  1  0  0  0
    0.6915    0.6407    2.3264 H   0  0  0  0  0  0
   -1.2983   -0.2505    2.3692 C   0  0  1  0  0  0
   -1.7547   -1.2083    2.1134 H   0  0  0  0  0  0
   -1.3316   -0.0726    3.7728 O   0  0  0  0  0  0
    0.8625   -1.4480    2.4547 N   0  3  0  0  0  0
    1.6000   -0.1314    0.0222 O   0  0  0  0  0  0
    1.9579   -0.5659   -1.2983 C   0  0  1  0  0  0
    1.6153   -1.5951   -1.4197 H   0  0  0  0  0  0
    1.2455    0.3186   -2.3745 C   0  0  1  0  0  0
    0.1715    0.3056   -2.2009 H   0  0  0  0  0  0
    1.7402    1.7782   -2.4010 C   0  0  0  0  0  0
    0.7740    2.6125   -3.0039 O   0  0  0  0  0  0
    1.3704   -0.2518   -3.6630 O   0  0  0  0  0  0
    3.5241   -0.5586   -1.3670 C   0  0  1  0  0  0
    3.8899    0.4185   -1.0476 H   0  0  0  0  0  0
    4.2471   -1.6822   -0.5700 C   0  0  2  0  0  0
    3.9556   -1.6779    0.9315 C   0  0  0  0  0  0
    4.0045   -0.6770    1.6444 O   0  0  0  0  0  0
    5.7135   -1.5507   -0.6781 N   0  3  0  0  0  0
    3.9499   -0.7533   -2.7032 O   0  0  0  0  0  0
   -2.3941    2.1688   -0.5040 C   0  0  0  0  0  0
   -2.4720    1.9409   -1.8947 O   0  0  0  0  0  0
   -6.1290    1.2009    1.0211 N   0  0  0  0  0  0
   -7.8429    1.6123    3.4008 O   0  0  0  0  0  0
   -6.6389    3.4324    5.3039 O   0  0  0  0  0  0
   -2.5570    3.3195    5.9562 O   0  0  0  0  0  0
   -4.4157    3.1972    6.7401 H   0  0  0  0  0  0
   -3.6762    1.6438    6.3972 H   0  0  0  0  0  0
   -1.0420    0.8041    3.9755 H   0  0  0  0  0  0
    0.4229   -2.2749    2.0771 H   0  0  0  0  0  0
    0.7912   -1.4617    3.4625 H   0  0  0  0  0  0
    1.8922    2.1448   -1.3855 H   0  0  0  0  0  0
    2.6933    1.8718   -2.9226 H   0  0  0  0  0  0
    1.1025    3.4985   -3.0142 H   0  0  0  0  0  0
    0.8933   -1.0675   -3.6819 H   0  0  0  0  0  0
    3.7070   -2.6674    1.3153 H   0  0  0  0  0  0
    3.4825   -0.1485   -3.2615 H   0  0  0  0  0  0
   -3.4076    2.3722   -0.1609 H   0  0  0  0  0  0
   -1.7953    3.0562   -0.2958 H   0  0  0  0  0  0
   -2.7994    2.7235   -2.3117 H   0  0  0  0  0  0
   -6.0671    2.1452    0.6436 H   0  0  0  0  0  0
   -7.7737    0.7788    3.8405 H   0  0  0  0  0  0
   -6.5263    4.2003    4.7650 H   0  0  0  0  0  0
   -1.9988    2.8502    5.3559 H   0  0  0  0  0  0
   -5.5193    0.6129    0.4546 H   0  0  0  0  0  0
    6.1621   -2.3132   -0.1909 H   0  0  0  0  0  0
    6.0046   -0.6730   -0.2713 H   0  0  0  0  0  0
    1.8357   -1.4245    2.1867 H   0  0  0  0  0  0
    3.9631   -2.6531   -0.9775 H   0  0  0  0  0  0
    5.9764   -1.5715   -1.6534 H   0  0  0  0  0  0
  1  2  1  0  0  0
  1 47  1  0  0  0
  1 48  1  0  0  0
  1 49  1  0  0  0
  2  3  1  0  0  0
  2 12  1  0  0  0
  2  4  1  0  0  0
  4  5  1  0  0  0
  4  6  1  0  0  0
  4 46  1  0  0  0
  6  7  1  0  0  0
  6  8  1  0  0  0
  6 45  1  0  0  0
  8  9  1  0  0  0
  8 10  1  0  0  0
  8 44  1  0  0  0
 10 11  1  0  0  0
 10 12  1  0  0  0
 10 13  1  0  0  0
 13 14  1  0  0  0
 14 15  1  0  0  0
 14 23  1  0  0  0
 14 16  1  0  0  0
 16 17  1  0  0  0
 16 18  1  0  0  0
 16 42  1  0  0  0
 18 19  1  0  0  0
 19 20  1  0  0  0
 19 21  1  0  0  0
 19 27  1  0  0  0
 21 22  1  0  0  0
 21 23  1  0  0  0
 21 26  1  0  0  0
 23 24  1  0  0  0
 23 25  1  0  0  0
 25 50  1  0  0  0
 26 51  1  0  0  0
 26 52  1  0  0  0
 26 69  1  0  0  0
 27 28  1  0  0  0
 28 29  1  0  0  0
 28 30  1  0  0  0
 28 35  1  0  0  0
 30 31  1  0  0  0
 30 32  1  0  0  0
 30 34  1  0  0  0
 32 33  1  0  0  0
 32 53  1  0  0  0
 32 54  1  0  0  0
 33 55  1  0  0  0
 34 56  1  0  0  0
 35 36  1  0  0  0
 35 37  1  0  0  0
 35 41  1  0  0  0
 37 38  1  0  0  0
 37 40  1  0  0  0
 37 70  1  0  0  0
 38 39  2  0  0  0
 38 57  1  0  0  0
 40 67  1  0  0  0
 40 68  1  0  0  0
 40 71  1  0  0  0
 41 58  1  0  0  0
 42 43  1  0  0  0
 42 59  1  0  0  0
 42 60  1  0  0  0
 43 61  1  0  0  0
 44 62  1  0  0  0
 44 66  1  0  0  0
 45 63  1  0  0  0
 46 64  1  0  0  0
 47 65  1  0  0  0
M  CHG  2  26   1  40   1
M  END
> <s_m_entry_id>
44

> <s_m_entry_name>
biosynth_p1.0.sdf.37

> <s_m_Source_Path>
/Users/Sebastito/Downloads

> <s_m_Source_File>
biosynth_p1.0.sdf.gz

> <i_m_Source_File_Index>
37

> <chiral flag>
1

> <version>
0

> <i_m_ct_enhanced_stereo_status>
0

> <s_m_source_file>
ligprep_vs.maegz

> <i_m_source_file_index>
37

> <i_lp_mmshare_version>
37011

> <r_epik_Ionization_Penalty>
4.02661

> <r_epik_Ionization_Penalty_Charging>
0.657324

> <r_epik_Ionization_Penalty_Neutral>
3.36928

> <r_epik_State_Penalty>
1.08035

> <r_epik_Charging_Adjusted_Penalty>
1.73767

> <i_epik_Tot_Q>
2

> <i_epik_Tot_abs_Q>
2

> <s_epik_Chemistry_Notes>
This compound contains an acetal/aminal-like group ( X-CH(R)-Y where X, Y are N, S, or O) that may be acid/base labile, releasing an aldehyde.

> <i_f3d_flags>
0

> <s_lp_Force_Field>
OPLS_2005

> <r_lp_Energy>
74.3602

> <b_lp_Chiralities_Consistent>
1

> <s_lp_Variant>
ZINC98231169-3

$$$$
ZINC98231169
                    3D
 Structure written by MMmdl.
 70 71  0  0  1  0            999 V2000
   -5.2564   -0.0750    5.6787 C   0  0  0  0  0  0
   -5.4789    1.0216    4.6183 C   0  0  2  0  0  0
   -5.1026    1.9574    5.0367 H   0  0  0  0  0  0
   -6.9402    1.2186    4.1692 C   0  0  2  0  0  0
   -7.3616    0.2684    3.8379 H   0  0  0  0  0  0
   -7.0106    2.2477    3.0261 C   0  0  1  0  0  0
   -6.8436    3.2545    3.4135 H   0  0  0  0  0  0
   -5.9935    1.9360    1.9040 C   0  0  2  0  0  0
   -6.2764    1.0142    1.3933 H   0  0  0  0  0  0
   -4.5971    1.7109    2.5294 C   0  0  1  0  0  0
   -4.2156    2.6293    2.9816 H   0  0  0  0  0  0
   -4.6744    0.7057    3.4925 O   0  0  0  0  0  0
   -3.7514    1.3094    1.4989 O   0  0  0  0  0  0
   -2.3724    1.2225    1.8428 C   0  0  2  0  0  0
   -2.1550    1.5721    2.8551 H   0  0  0  0  0  0
   -1.6247    2.1112    0.8224 C   0  0  2  0  0  0
   -1.9720    1.8715   -0.1851 H   0  0  0  0  0  0
   -0.2307    1.8504    0.9235 O   0  0  0  0  0  0
    0.1319    0.5541    0.5616 C   0  0  2  0  0  0
   -0.2731    0.3022   -0.4198 H   0  0  0  0  0  0
   -0.4174   -0.4001    1.6363 C   0  0  1  0  0  0
    0.0239   -0.1192    2.5943 H   0  0  0  0  0  0
   -1.9520   -0.2540    1.6841 C   0  0  1  0  0  0
   -2.3973   -0.6717    0.7795 H   0  0  0  0  0  0
   -2.4038   -0.9767    2.8133 O   0  0  0  0  0  0
   -0.0401   -1.7928    1.3292 N   0  3  0  0  0  0
    1.5181    0.4066    0.5354 O   0  0  0  0  0  0
    2.2718    1.3385   -0.2464 C   0  0  1  0  0  0
    2.0703    2.3001    0.2245 H   0  0  0  0  0  0
    3.7821    1.0873    0.0051 C   0  0  1  0  0  0
    4.3488    1.8602   -0.5149 H   0  0  0  0  0  0
    4.1467    1.1355    1.5005 C   0  0  0  0  0  0
    5.5421    1.2790    1.6589 O   0  0  0  0  0  0
    4.1812   -0.1628   -0.5227 O   0  0  0  0  0  0
    1.8155    1.4654   -1.7401 C   0  0  1  0  0  0
    0.7453    1.6655   -1.7869 H   0  0  0  0  0  0
    2.5288    2.5702   -2.5697 C   0  0  2  0  0  0
    2.5264    3.9238   -1.8488 C   0  0  0  0  0  0
    1.5131    4.4661   -1.4096 O   0  0  0  0  0  0
    1.9039    2.7266   -3.8946 N   0  0  0  0  0  0
    2.0653    0.2362   -2.3948 O   0  0  0  0  0  0
   -1.8229    3.6131    1.0885 C   0  0  0  0  0  0
   -1.4979    4.3544   -0.0681 O   0  0  0  0  0  0
   -5.9322    3.0536    0.9442 N   0  0  0  0  0  0
   -8.3075    2.1578    2.4670 O   0  0  0  0  0  0
   -7.6852    1.7096    5.2681 O   0  0  0  0  0  0
   -5.8843   -1.2904    5.3247 O   0  0  0  0  0  0
   -4.1911   -0.2478    5.8351 H   0  0  0  0  0  0
   -5.6684    0.2467    6.6356 H   0  0  0  0  0  0
   -3.3380   -0.8493    2.8971 H   0  0  0  0  0  0
   -0.4196   -2.0583    0.4321 H   0  0  0  0  0  0
   -0.4087   -2.4020    2.0456 H   0  0  0  0  0  0
    3.6740    1.9936    1.9794 H   0  0  0  0  0  0
    3.8015    0.2442    2.0258 H   0  0  0  0  0  0
    5.9654    0.5376    1.2528 H   0  0  0  0  0  0
    3.9266   -0.1979   -1.4329 H   0  0  0  0  0  0
    3.5197    4.3662   -1.7729 H   0  0  0  0  0  0
    1.7716    0.3133   -3.2905 H   0  0  0  0  0  0
   -2.8661    3.8275    1.3196 H   0  0  0  0  0  0
   -1.2281    3.9512    1.9376 H   0  0  0  0  0  0
   -0.5782    4.2374   -0.2543 H   0  0  0  0  0  0
   -5.6844    3.9199    1.4196 H   0  0  0  0  0  0
   -8.9390    2.3047    3.1546 H   0  0  0  0  0  0
   -7.3131    2.5351    5.5382 H   0  0  0  0  0  0
   -5.7598   -1.9099    6.0278 H   0  0  0  0  0  0
   -5.2109    2.8811    0.2455 H   0  0  0  0  0  0
    0.9379    3.0374   -3.7983 H   0  0  0  0  0  0
    2.3948    3.4348   -4.4389 H   0  0  0  0  0  0
    0.9669   -1.8681    1.3053 H   0  0  0  0  0  0
    3.5698    2.2763   -2.7071 H   0  0  0  0  0  0
  1  2  1  0  0  0
  1 47  1  0  0  0
  1 48  1  0  0  0
  1 49  1  0  0  0
  2  3  1  0  0  0
  2 12  1  0  0  0
  2  4  1  0  0  0
  4  5  1  0  0  0
  4  6  1  0  0  0
  4 46  1  0  0  0
  6  7  1  0  0  0
  6  8  1  0  0  0
  6 45  1  0  0  0
  8  9  1  0  0  0
  8 10  1  0  0  0
  8 44  1  0  0  0
 10 11  1  0  0  0
 10 12  1  0  0  0
 10 13  1  0  0  0
 13 14  1  0  0  0
 14 15  1  0  0  0
 14 23  1  0  0  0
 14 16  1  0  0  0
 16 17  1  0  0  0
 16 18  1  0  0  0
 16 42  1  0  0  0
 18 19  1  0  0  0
 19 20  1  0  0  0
 19 21  1  0  0  0
 19 27  1  0  0  0
 21 22  1  0  0  0
 21 23  1  0  0  0
 21 26  1  0  0  0
 23 24  1  0  0  0
 23 25  1  0  0  0
 25 50  1  0  0  0
 26 51  1  0  0  0
 26 52  1  0  0  0
 26 69  1  0  0  0
 27 28  1  0  0  0
 28 29  1  0  0  0
 28 30  1  0  0  0
 28 35  1  0  0  0
 30 31  1  0  0  0
 30 32  1  0  0  0
 30 34  1  0  0  0
 32 33  1  0  0  0
 32 53  1  0  0  0
 32 54  1  0  0  0
 33 55  1  0  0  0
 34 56  1  0  0  0
 35 36  1  0  0  0
 35 37  1  0  0  0
 35 41  1  0  0  0
 37 38  1  0  0  0
 37 40  1  0  0  0
 37 70  1  0  0  0
 38 39  2  0  0  0
 38 57  1  0  0  0
 40 67  1  0  0  0
 40 68  1  0  0  0
 41 58  1  0  0  0
 42 43  1  0  0  0
 42 59  1  0  0  0
 42 60  1  0  0  0
 43 61  1  0  0  0
 44 62  1  0  0  0
 44 66  1  0  0  0
 45 63  1  0  0  0
 46 64  1  0  0  0
 47 65  1  0  0  0
M  CHG  1  26   1
M  END
> <s_m_entry_id>
44

> <s_m_entry_name>
biosynth_p1.0.sdf.37

> <s_m_Source_Path>
/Users/Sebastito/Downloads

> <s_m_Source_File>
biosynth_p1.0.sdf.gz

> <i_m_Source_File_Index>
37

> <chiral flag>
1

> <version>
0

> <i_m_ct_enhanced_stereo_status>
0

> <s_m_source_file>
ligprep_vs.maegz

> <i_m_source_file_index>
37

> <i_lp_mmshare_version>
37011

> <r_epik_Ionization_Penalty>
1.38

> <r_epik_Ionization_Penalty_Charging>
0.268472

> <r_epik_Ionization_Penalty_Neutral>
1.11152

> <r_epik_State_Penalty>
1.13723

> <r_epik_Charging_Adjusted_Penalty>
1.40571

> <i_epik_Tot_Q>
1

> <i_epik_Tot_abs_Q>
1

> <s_epik_Chemistry_Notes>
This compound contains an acetal/aminal-like group ( X-CH(R)-Y where X, Y are N, S, or O) that may be acid/base labile, releasing an aldehyde.

> <i_f3d_flags>
0

> <s_lp_Force_Field>
OPLS_2005

> <r_lp_Energy>
78.043

> <b_lp_Chiralities_Consistent>
1

> <s_lp_Variant>
ZINC98231169-4

$$$$
ZINC98231169
                    3D
 Structure written by MMmdl.
 70 71  0  0  1  0            999 V2000
   -5.1446    0.1943    5.8307 C   0  0  0  0  0  0
   -5.4291    1.1715    4.6724 C   0  0  2  0  0  0
   -5.0588    2.1517    4.9797 H   0  0  0  0  0  0
   -6.9092    1.2954    4.2582 C   0  0  2  0  0  0
   -7.3195    0.3112    4.0271 H   0  0  0  0  0  0
   -7.0366    2.2122    3.0287 C   0  0  1  0  0  0
   -6.8597    3.2513    3.3127 H   0  0  0  0  0  0
   -6.0624    1.7959    1.9043 C   0  0  2  0  0  0
   -6.3455    0.8167    1.5152 H   0  0  0  0  0  0
   -4.6380    1.6700    2.4953 C   0  0  1  0  0  0
   -4.2650    2.6349    2.8451 H   0  0  0  0  0  0
   -4.6581    0.7601    3.5538 O   0  0  0  0  0  0
   -3.8119    1.1951    1.4811 O   0  0  0  0  0  0
   -2.4321    1.1018    1.8202 C   0  0  2  0  0  0
   -2.2298    1.3231    2.8711 H   0  0  0  0  0  0
   -1.6640    2.1064    0.9343 C   0  0  2  0  0  0
   -1.9634    1.9988   -0.1103 H   0  0  0  0  0  0
   -0.2759    1.8231    1.0275 O   0  0  0  0  0  0
    0.0943    0.5877    0.5006 C   0  0  2  0  0  0
   -0.2819    0.4774   -0.5175 H   0  0  0  0  0  0
   -0.4780   -0.5210    1.4061 C   0  0  1  0  0  0
   -0.0269   -0.4048    2.3929 H   0  0  0  0  0  0
   -2.0103   -0.3479    1.5023 C   0  0  1  0  0  0
   -2.4804   -0.6756    0.5733 H   0  0  0  0  0  0
   -2.4503   -1.1582    2.5760 O   0  0  0  0  0  0
   -0.1501   -1.8440    0.8464 N   0  0  0  0  0  0
    1.4827    0.4511    0.5077 O   0  0  0  0  0  0
    2.2566    1.4419   -0.1742 C   0  0  1  0  0  0
    2.0129    2.3790    0.3272 H   0  0  0  0  0  0
    3.7587    1.2087    0.1454 C   0  0  1  0  0  0
    4.3207    2.0738   -0.2076 H   0  0  0  0  0  0
    4.0226    1.0461    1.6544 C   0  0  0  0  0  0
    5.3836    1.2917    1.9430 O   0  0  0  0  0  0
    4.2652    0.0766   -0.5356 O   0  0  0  0  0  0
    1.8722    1.6340   -1.6769 C   0  0  1  0  0  0
    0.8164    1.8936   -1.7545 H   0  0  0  0  0  0
    2.6705    2.7343   -2.4213 C   0  0  2  0  0  0
    2.5421    4.1040   -1.7483 C   0  0  0  0  0  0
    3.4126    4.5939   -1.0332 O   0  0  0  0  0  0
    2.1701    2.9147   -3.7968 N   0  3  0  0  0  0
    2.0658    0.4150   -2.3700 O   0  0  0  0  0  0
   -1.8360    3.5764    1.3599 C   0  0  0  0  0  0
   -3.0313    4.1216    0.8443 O   0  0  0  0  0  0
   -6.0795    2.7963    0.8221 N   0  0  0  0  0  0
   -8.3546    2.0687    2.5330 O   0  0  0  0  0  0
   -7.6309    1.8689    5.3319 O   0  0  0  0  0  0
   -5.8093   -1.0411    5.6633 O   0  0  0  0  0  0
   -4.0729    0.0210    5.9320 H   0  0  0  0  0  0
   -5.4844    0.6283    6.7714 H   0  0  0  0  0  0
   -2.0625   -0.8358    3.3748 H   0  0  0  0  0  0
    0.8603   -1.9681    0.7994 H   0  0  0  0  0  0
   -0.5157   -2.5822    1.4464 H   0  0  0  0  0  0
    3.4340    1.7676    2.2220 H   0  0  0  0  0  0
    3.7379    0.0533    2.0056 H   0  0  0  0  0  0
    5.5229    1.1656    2.8694 H   0  0  0  0  0  0
    4.3617    0.2888   -1.4504 H   0  0  0  0  0  0
    1.6013    4.6091   -1.9696 H   0  0  0  0  0  0
    2.9318    0.0887   -2.1781 H   0  0  0  0  0  0
   -1.8101    3.6828    2.4447 H   0  0  0  0  0  0
   -1.0158    4.1753    0.9625 H   0  0  0  0  0  0
   -3.0928    5.0247    1.1161 H   0  0  0  0  0  0
   -7.0280    2.9094    0.4675 H   0  0  0  0  0  0
   -8.9567    2.2978    3.2247 H   0  0  0  0  0  0
   -7.5915    1.2757    6.0667 H   0  0  0  0  0  0
   -5.5874   -1.6039    6.3895 H   0  0  0  0  0  0
   -5.7873    3.7058    1.1755 H   0  0  0  0  0  0
    2.7226    3.6164   -4.2688 H   0  0  0  0  0  0
    1.2039    3.2075   -3.7688 H   0  0  0  0  0  0
    3.7240    2.4582   -2.4758 H   0  0  0  0  0  0
    2.2392    2.0380   -4.2940 H   0  0  0  0  0  0
  1  2  1  0  0  0
  1 47  1  0  0  0
  1 48  1  0  0  0
  1 49  1  0  0  0
  2  3  1  0  0  0
  2 12  1  0  0  0
  2  4  1  0  0  0
  4  5  1  0  0  0
  4  6  1  0  0  0
  4 46  1  0  0  0
  6  7  1  0  0  0
  6  8  1  0  0  0
  6 45  1  0  0  0
  8  9  1  0  0  0
  8 10  1  0  0  0
  8 44  1  0  0  0
 10 11  1  0  0  0
 10 12  1  0  0  0
 10 13  1  0  0  0
 13 14  1  0  0  0
 14 15  1  0  0  0
 14 23  1  0  0  0
 14 16  1  0  0  0
 16 17  1  0  0  0
 16 18  1  0  0  0
 16 42  1  0  0  0
 18 19  1  0  0  0
 19 20  1  0  0  0
 19 21  1  0  0  0
 19 27  1  0  0  0
 21 22  1  0  0  0
 21 23  1  0  0  0
 21 26  1  0  0  0
 23 24  1  0  0  0
 23 25  1  0  0  0
 25 50  1  0  0  0
 26 51  1  0  0  0
 26 52  1  0  0  0
 27 28  1  0  0  0
 28 29  1  0  0  0
 28 30  1  0  0  0
 28 35  1  0  0  0
 30 31  1  0  0  0
 30 32  1  0  0  0
 30 34  1  0  0  0
 32 33  1  0  0  0
 32 53  1  0  0  0
 32 54  1  0  0  0
 33 55  1  0  0  0
 34 56  1  0  0  0
 35 36  1  0  0  0
 35 37  1  0  0  0
 35 41  1  0  0  0
 37 38  1  0  0  0
 37 40  1  0  0  0
 37 69  1  0  0  0
 38 39  2  0  0  0
 38 57  1  0  0  0
 40 67  1  0  0  0
 40 68  1  0  0  0
 40 70  1  0  0  0
 41 58  1  0  0  0
 42 43  1  0  0  0
 42 59  1  0  0  0
 42 60  1  0  0  0
 43 61  1  0  0  0
 44 62  1  0  0  0
 44 66  1  0  0  0
 45 63  1  0  0  0
 46 64  1  0  0  0
 47 65  1  0  0  0
M  CHG  1  40   1
M  END
> <s_m_entry_id>
44

> <s_m_entry_name>
biosynth_p1.0.sdf.37

> <s_m_Source_Path>
/Users/Sebastito/Downloads

> <s_m_Source_File>
biosynth_p1.0.sdf.gz

> <i_m_Source_File_Index>
37

> <chiral flag>
1

> <version>
0

> <i_m_ct_enhanced_stereo_status>
0

> <s_m_source_file>
ligprep_vs.maegz

> <i_m_source_file_index>
37

> <i_lp_mmshare_version>
37011

> <r_epik_Ionization_Penalty>
4.2582

> <r_epik_Ionization_Penalty_Charging>
0.372387

> <r_epik_Ionization_Penalty_Neutral>
3.88581

> <r_epik_State_Penalty>
1.42276

> <r_epik_Charging_Adjusted_Penalty>
1.79515

> <i_epik_Tot_Q>
1

> <i_epik_Tot_abs_Q>
1

> <s_epik_Chemistry_Notes>
This compound contains an acetal/aminal-like group ( X-CH(R)-Y where X, Y are N, S, or O) that may be acid/base labile, releasing an aldehyde.

> <i_f3d_flags>
0

> <s_lp_Force_Field>
OPLS_2005

> <r_lp_Energy>
78.7125

> <b_lp_Chiralities_Consistent>
1

> <s_lp_Variant>
ZINC98231169-5

$$$$
ZINC98231169
                    3D
 Structure written by MMmdl.
 69 70  0  0  1  0            999 V2000
   -5.1887   -0.1077    5.6810 C   0  0  0  0  0  0
   -5.3964    1.0411    4.6777 C   0  0  2  0  0  0
   -4.9845    1.9689    5.0816 H   0  0  0  0  0  0
   -6.8762    1.2429    4.2960 C   0  0  2  0  0  0
   -7.3131    0.2825    4.0173 H   0  0  0  0  0  0
   -7.0074    2.2467    3.1326 C   0  0  1  0  0  0
   -6.8115    3.2599    3.4889 H   0  0  0  0  0  0
   -6.0581    1.9076    1.9615 C   0  0  2  0  0  0
   -6.3818    0.9855    1.4762 H   0  0  0  0  0  0
   -4.6409    1.6640    2.5233 C   0  0  1  0  0  0
   -4.2232    2.5785    2.9508 H   0  0  0  0  0  0
   -4.7066    0.6685    3.4950 O   0  0  0  0  0  0
   -3.8442    1.2349    1.4655 O   0  0  0  0  0  0
   -2.4535    1.1432    1.7607 C   0  0  2  0  0  0
   -2.2017    1.5029    2.7615 H   0  0  0  0  0  0
   -1.7300    2.0174    0.7199 C   0  0  2  0  0  0
   -2.0610    1.7425   -0.2840 H   0  0  0  0  0  0
   -0.3401    1.7786    0.8675 O   0  0  0  0  0  0
    0.0581    0.5016    0.4804 C   0  0  2  0  0  0
   -0.2985    0.2824   -0.5273 H   0  0  0  0  0  0
   -0.5051   -0.5175    1.4941 C   0  0  1  0  0  0
   -0.0361   -0.3098    2.4572 H   0  0  0  0  0  0
   -2.0372   -0.3347    1.6066 C   0  0  1  0  0  0
   -2.5327   -0.7684    0.7365 H   0  0  0  0  0  0
   -2.4431   -1.0087    2.7825 O   0  0  0  0  0  0
   -0.1843   -1.8869    1.0540 N   0  0  0  0  0  0
    1.4481    0.3901    0.5143 O   0  0  0  0  0  0
    2.2150    1.3631   -0.2022 C   0  0  1  0  0  0
    1.9518    2.3119    0.2643 H   0  0  0  0  0  0
    3.7190    1.1583    0.1349 C   0  0  1  0  0  0
    4.2922    1.9834   -0.2878 H   0  0  0  0  0  0
    4.0179    1.1019    1.6457 C   0  0  0  0  0  0
    3.7023    2.3293    2.2692 O   0  0  0  0  0  0
    4.2270   -0.0170   -0.4621 O   0  0  0  0  0  0
    1.8353    1.4996   -1.7147 C   0  0  1  0  0  0
    0.7711    1.7164   -1.8075 H   0  0  0  0  0  0
    2.6077    2.5892   -2.5099 C   0  0  2  0  0  0
    2.6307    3.9348   -1.7742 C   0  0  0  0  0  0
    1.6226    4.5697   -1.4676 O   0  0  0  0  0  0
    2.0286    2.7787   -3.8517 N   0  0  0  0  0  0
    2.0929    0.2652   -2.3571 O   0  0  0  0  0  0
   -1.9544    3.5222    0.9418 C   0  0  0  0  0  0
   -1.6146    4.2344   -0.2291 O   0  0  0  0  0  0
   -6.0322    3.0152    0.9892 N   0  0  0  0  0  0
   -8.3323    2.1605    2.6414 O   0  0  0  0  0  0
   -7.5632    1.7668    5.4173 O   0  0  0  0  0  0
   -3.9080   -0.0094    6.2669 O   0  0  0  0  0  0
   -5.9170   -0.0515    6.4901 H   0  0  0  0  0  0
   -5.3126   -1.0807    5.2040 H   0  0  0  0  0  0
   -3.3776   -0.9024    2.8775 H   0  0  0  0  0  0
   -0.6145   -2.0786    0.1506 H   0  0  0  0  0  0
    0.8217   -1.9846    0.9249 H   0  0  0  0  0  0
    3.4633    0.2977    2.1301 H   0  0  0  0  0  0
    5.0771    0.9035    1.8136 H   0  0  0  0  0  0
    3.8895    2.2534    3.1924 H   0  0  0  0  0  0
    3.7035   -0.7479   -0.1706 H   0  0  0  0  0  0
    3.6412    4.2829   -1.5599 H   0  0  0  0  0  0
    1.8271    0.3418   -3.2610 H   0  0  0  0  0  0
   -3.0042    3.7297    1.1474 H   0  0  0  0  0  0
   -1.3790    3.8898    1.7919 H   0  0  0  0  0  0
   -1.7479    5.1562   -0.0699 H   0  0  0  0  0  0
   -6.9703    3.1863    0.6295 H   0  0  0  0  0  0
   -8.4875    1.2757    2.3486 H   0  0  0  0  0  0
   -7.5083    1.1426    6.1246 H   0  0  0  0  0  0
   -3.2588   -0.0996    5.5857 H   0  0  0  0  0  0
   -5.7342    3.8775    1.4427 H   0  0  0  0  0  0
    1.0647    3.1016   -3.7770 H   0  0  0  0  0  0
    2.5460    3.4907   -4.3651 H   0  0  0  0  0  0
    3.6425    2.2621   -2.6177 H   0  0  0  0  0  0
  1  2  1  0  0  0
  1 47  1  0  0  0
  1 48  1  0  0  0
  1 49  1  0  0  0
  2  3  1  0  0  0
  2 12  1  0  0  0
  2  4  1  0  0  0
  4  5  1  0  0  0
  4  6  1  0  0  0
  4 46  1  0  0  0
  6  7  1  0  0  0
  6  8  1  0  0  0
  6 45  1  0  0  0
  8  9  1  0  0  0
  8 10  1  0  0  0
  8 44  1  0  0  0
 10 11  1  0  0  0
 10 12  1  0  0  0
 10 13  1  0  0  0
 13 14  1  0  0  0
 14 15  1  0  0  0
 14 23  1  0  0  0
 14 16  1  0  0  0
 16 17  1  0  0  0
 16 18  1  0  0  0
 16 42  1  0  0  0
 18 19  1  0  0  0
 19 20  1  0  0  0
 19 21  1  0  0  0
 19 27  1  0  0  0
 21 22  1  0  0  0
 21 23  1  0  0  0
 21 26  1  0  0  0
 23 24  1  0  0  0
 23 25  1  0  0  0
 25 50  1  0  0  0
 26 51  1  0  0  0
 26 52  1  0  0  0
 27 28  1  0  0  0
 28 29  1  0  0  0
 28 30  1  0  0  0
 28 35  1  0  0  0
 30 31  1  0  0  0
 30 32  1  0  0  0
 30 34  1  0  0  0
 32 33  1  0  0  0
 32 53  1  0  0  0
 32 54  1  0  0  0
 33 55  1  0  0  0
 34 56  1  0  0  0
 35 36  1  0  0  0
 35 37  1  0  0  0
 35 41  1  0  0  0
 37 38  1  0  0  0
 37 40  1  0  0  0
 37 69  1  0  0  0
 38 39  2  0  0  0
 38 57  1  0  0  0
 40 67  1  0  0  0
 40 68  1  0  0  0
 41 58  1  0  0  0
 42 43  1  0  0  0
 42 59  1  0  0  0
 42 60  1  0  0  0
 43 61  1  0  0  0
 44 62  1  0  0  0
 44 66  1  0  0  0
 45 63  1  0  0  0
 46 64  1  0  0  0
 47 65  1  0  0  0
M  END
> <s_m_entry_id>
44

> <s_m_entry_name>
biosynth_p1.0.sdf.37

> <s_m_Source_Path>
/Users/Sebastito/Downloads

> <s_m_Source_File>
biosynth_p1.0.sdf.gz

> <i_m_Source_File_Index>
37

> <chiral flag>
1

> <version>
0

> <i_m_ct_enhanced_stereo_status>
0

> <s_m_source_file>
ligprep_vs.maegz

> <i_m_source_file_index>
37

> <i_lp_mmshare_version>
37011

> <r_epik_Ionization_Penalty>
1.75103

> <r_epik_Ionization_Penalty_Charging>
0

> <r_epik_Ionization_Penalty_Neutral>
1.75103

> <r_epik_State_Penalty>
1.4979

> <r_epik_Charging_Adjusted_Penalty>
1.4979

> <i_epik_Tot_Q>
0

> <i_epik_Tot_abs_Q>
0

> <s_epik_Chemistry_Notes>
This compound contains an acetal/aminal-like group ( X-CH(R)-Y where X, Y are N, S, or O) that may be acid/base labile, releasing an aldehyde.

> <i_f3d_flags>
0

> <s_lp_Force_Field>
OPLS_2005

> <r_lp_Energy>
78.9765

> <b_lp_Chiralities_Consistent>
1

> <s_lp_Variant>
ZINC98231169-6

$$$$
ZINC98231169
                    3D
 Structure written by MMmdl.
 71 72  0  0  1  0            999 V2000
   -4.7611    0.4275    5.8424 C   0  0  0  0  0  0
   -5.0752    1.3693    4.6641 C   0  0  2  0  0  0
   -4.6064    2.3302    4.8863 H   0  0  0  0  0  0
   -6.5788    1.5974    4.3867 C   0  0  2  0  0  0
   -7.0954    0.6432    4.2739 H   0  0  0  0  0  0
   -6.7534    2.4378    3.1088 C   0  0  1  0  0  0
   -6.4375    3.4675    3.2875 H   0  0  0  0  0  0
   -5.9413    1.8350    1.9446 C   0  0  2  0  0  0
   -6.3231    0.8464    1.6843 H   0  0  0  0  0  0
   -4.4712    1.6802    2.3897 C   0  0  1  0  0  0
   -4.0282    2.6486    2.6333 H   0  0  0  0  0  0
   -4.4292    0.8476    3.5085 O   0  0  0  0  0  0
   -3.7727    1.1055    1.3299 O   0  0  0  0  0  0
   -2.3631    1.0030    1.5172 C   0  0  2  0  0  0
   -2.0195    1.4491    2.4535 H   0  0  0  0  0  0
   -1.7122    1.7452    0.3281 C   0  0  2  0  0  0
   -2.1656    1.3980   -0.6030 H   0  0  0  0  0  0
   -0.3199    1.4580    0.3217 O   0  0  0  0  0  0
   -0.0126    0.1218    0.0758 C   0  0  2  0  0  0
   -0.5058   -0.2126   -0.8390 H   0  0  0  0  0  0
   -0.4761   -0.6999    1.2900 C   0  0  1  0  0  0
    0.0672   -0.3424    2.1665 H   0  0  0  0  0  0
   -1.9950   -0.4960    1.4731 C   0  0  1  0  0  0
   -2.5365   -0.9880    0.6632 H   0  0  0  0  0  0
   -2.3541   -1.0871    2.7075 O   0  0  0  0  0  0
   -0.1661   -2.1276    1.0828 N   0  3  0  0  0  0
    1.3656   -0.0407   -0.0415 O   0  0  0  0  0  0
    1.9458    0.4701   -1.2419 C   0  0  1  0  0  0
    1.3257    1.3141   -1.5442 H   0  0  0  0  0  0
    3.3324    1.1009   -0.9340 C   0  0  1  0  0  0
    3.6990    1.5921   -1.8358 H   0  0  0  0  0  0
    3.2981    2.1483    0.1957 C   0  0  0  0  0  0
    2.4906    3.2505   -0.1617 O   0  0  0  0  0  0
    4.2960    0.1222   -0.6034 O   0  0  0  0  0  0
    1.8640   -0.5814   -2.3942 C   0  0  1  0  0  0
    0.8330   -0.9192   -2.5002 H   0  0  0  0  0  0
    2.3687   -0.0964   -3.7819 C   0  0  2  0  0  0
    1.7447    1.2452   -4.1846 C   0  0  0  0  0  0
    0.5334    1.4589   -4.2096 O   0  0  0  0  0  0
    2.0891   -1.0948   -4.8288 N   0  0  0  0  0  0
    2.6424   -1.7084   -2.0380 O   0  0  0  0  0  0
   -1.8507    3.2739    0.4282 C   0  0  0  0  0  0
   -1.6611    3.8539   -0.8444 O   0  0  0  0  0  0
   -6.0269    2.7083    0.7581 N   0  3  0  0  0  0
   -8.1216    2.4254    2.7439 O   0  0  0  0  0  0
   -7.1324    2.3085    5.4768 O   0  0  0  0  0  0
   -5.4802   -0.7847    5.7505 O   0  0  0  0  0  0
   -3.6929    0.2149    5.8926 H   0  0  0  0  0  0
   -5.0322    0.9066    6.7835 H   0  0  0  0  0  0
   -1.9407   -0.6055    3.4081 H   0  0  0  0  0  0
   -0.6506   -2.4652    0.2636 H   0  0  0  0  0  0
    2.9256    1.7160    1.1250 H   0  0  0  0  0  0
    4.3039    2.5194    0.3969 H   0  0  0  0  0  0
    2.5279    3.8887    0.5344 H   0  0  0  0  0  0
    3.9947   -0.3508    0.1569 H   0  0  0  0  0  0
    2.4877    1.9936   -4.4600 H   0  0  0  0  0  0
    2.5861   -2.3402   -2.7392 H   0  0  0  0  0  0
   -2.8509    3.5526    0.7576 H   0  0  0  0  0  0
   -1.1448    3.6917    1.1468 H   0  0  0  0  0  0
   -1.6889    4.7948   -0.7572 H   0  0  0  0  0  0
   -5.6606    3.6223    0.9820 H   0  0  0  0  0  0
   -8.4224    1.5294    2.7216 H   0  0  0  0  0  0
   -7.0779    1.7660    6.2493 H   0  0  0  0  0  0
   -5.1951   -1.2453    4.9759 H   0  0  0  0  0  0
   -6.9937    2.7951    0.4784 H   0  0  0  0  0  0
    1.0842   -1.2296   -4.9324 H   0  0  0  0  0  0
   -0.4614   -2.6571    1.8907 H   0  0  0  0  0  0
    2.4435   -0.7748   -5.7292 H   0  0  0  0  0  0
    0.8297   -2.2369    0.9516 H   0  0  0  0  0  0
    3.4471    0.0525   -3.7187 H   0  0  0  0  0  0
   -5.4919    2.3045    0.0027 H   0  0  0  0  0  0
  1  2  1  0  0  0
  1 47  1  0  0  0
  1 48  1  0  0  0
  1 49  1  0  0  0
  2  3  1  0  0  0
  2 12  1  0  0  0
  2  4  1  0  0  0
  4  5  1  0  0  0
  4  6  1  0  0  0
  4 46  1  0  0  0
  6  7  1  0  0  0
  6  8  1  0  0  0
  6 45  1  0  0  0
  8  9  1  0  0  0
  8 10  1  0  0  0
  8 44  1  0  0  0
 10 11  1  0  0  0
 10 12  1  0  0  0
 10 13  1  0  0  0
 13 14  1  0  0  0
 14 15  1  0  0  0
 14 23  1  0  0  0
 14 16  1  0  0  0
 16 17  1  0  0  0
 16 18  1  0  0  0
 16 42  1  0  0  0
 18 19  1  0  0  0
 19 20  1  0  0  0
 19 21  1  0  0  0
 19 27  1  0  0  0
 21 22  1  0  0  0
 21 23  1  0  0  0
 21 26  1  0  0  0
 23 24  1  0  0  0
 23 25  1  0  0  0
 25 50  1  0  0  0
 26 51  1  0  0  0
 26 67  1  0  0  0
 26 69  1  0  0  0
 27 28  1  0  0  0
 28 29  1  0  0  0
 28 30  1  0  0  0
 28 35  1  0  0  0
 30 31  1  0  0  0
 30 32  1  0  0  0
 30 34  1  0  0  0
 32 33  1  0  0  0
 32 52  1  0  0  0
 32 53  1  0  0  0
 33 54  1  0  0  0
 34 55  1  0  0  0
 35 36  1  0  0  0
 35 37  1  0  0  0
 35 41  1  0  0  0
 37 38  1  0  0  0
 37 40  1  0  0  0
 37 70  1  0  0  0
 38 39  2  0  0  0
 38 56  1  0  0  0
 40 66  1  0  0  0
 40 68  1  0  0  0
 41 57  1  0  0  0
 42 43  1  0  0  0
 42 58  1  0  0  0
 42 59  1  0  0  0
 43 60  1  0  0  0
 44 61  1  0  0  0
 44 65  1  0  0  0
 44 71  1  0  0  0
 45 62  1  0  0  0
 46 63  1  0  0  0
 47 64  1  0  0  0
M  CHG  2  26   1  44   1
M  END
> <s_m_entry_id>
45

> <s_m_entry_name>
biosynth_p1.0.sdf.38

> <s_m_Source_Path>
/Users/Sebastito/Downloads

> <s_m_Source_File>
biosynth_p1.0.sdf.gz

> <i_m_Source_File_Index>
38

> <chiral flag>
1

> <version>
0

> <i_m_ct_enhanced_stereo_status>
0

> <s_m_source_file>
ligprep_vs.maegz

> <i_m_source_file_index>
38

> <i_lp_mmshare_version>
37011

> <r_epik_Ionization_Penalty>
0.938878

> <r_epik_Ionization_Penalty_Charging>
0.505476

> <r_epik_Ionization_Penalty_Neutral>
0.433402

> <r_epik_State_Penalty>
0.656471

> <r_epik_Charging_Adjusted_Penalty>
1.16195

> <i_epik_Tot_Q>
2

> <i_epik_Tot_abs_Q>
2

> <s_epik_Chemistry_Notes>
This compound contains an acetal/aminal-like group ( X-CH(R)-Y where X, Y are N, S, or O) that may be acid/base labile, releasing an aldehyde.

> <i_f3d_flags>
0

> <s_lp_Force_Field>
OPLS_2005

> <r_lp_Energy>
68.6483

> <b_lp_Chiralities_Consistent>
1

> <s_lp_Variant>
ZINC98231169-1

$$$$
ZINC98231169
                    3D
 Structure written by MMmdl.
 70 71  0  0  1  0            999 V2000
   -5.4135   -0.5156    5.4403 C   0  0  0  0  0  0
   -5.4828    0.8173    4.6711 C   0  0  2  0  0  0
   -4.9430    1.5834    5.2320 H   0  0  0  0  0  0
   -6.9249    1.2875    4.3627 C   0  0  2  0  0  0
   -7.4919    0.4663    3.9208 H   0  0  0  0  0  0
   -6.9041    2.4919    3.4030 C   0  0  1  0  0  0
   -6.5281    3.3781    3.9176 H   0  0  0  0  0  0
   -6.0321    2.1884    2.1700 C   0  0  2  0  0  0
   -6.4623    1.3712    1.5880 H   0  0  0  0  0  0
   -4.6388    1.7487    2.6576 C   0  0  1  0  0  0
   -4.1525    2.5352    3.2390 H   0  0  0  0  0  0
   -4.7946    0.6062    3.4426 O   0  0  0  0  0  0
   -3.8707    1.4691    1.5310 O   0  0  0  0  0  0
   -2.5058    1.1618    1.7994 C   0  0  2  0  0  0
   -2.2765    1.1183    2.8673 H   0  0  0  0  0  0
   -1.6429    2.2587    1.1403 C   0  0  2  0  0  0
   -1.9420    2.4068    0.1004 H   0  0  0  0  0  0
   -0.2892    1.8349    1.1589 O   0  0  0  0  0  0
   -0.0209    0.7116    0.3805 C   0  0  2  0  0  0
   -0.3640    0.8752   -0.6430 H   0  0  0  0  0  0
   -0.7182   -0.5089    1.0146 C   0  0  1  0  0  0
   -0.2790   -0.6609    2.0018 H   0  0  0  0  0  0
   -2.2277   -0.2094    1.1509 C   0  0  1  0  0  0
   -2.7106   -0.2653    0.1738 H   0  0  0  0  0  0
   -2.7627   -1.1957    2.0121 O   0  0  0  0  0  0
   -0.5075   -1.6994    0.1712 N   0  0  0  0  0  0
    1.3485    0.4584    0.3925 O   0  0  0  0  0  0
    2.1484    1.3556   -0.3769 C   0  0  1  0  0  0
    1.6126    2.3051   -0.3976 H   0  0  0  0  0  0
    3.4671    1.6712    0.3824 C   0  0  1  0  0  0
    4.0097    2.4426   -0.1648 H   0  0  0  0  0  0
    3.2443    2.1760    1.8212 C   0  0  0  0  0  0
    2.5616    3.4127    1.8242 O   0  0  0  0  0  0
    4.3262    0.5509    0.4333 O   0  0  0  0  0  0
    2.2564    0.8687   -1.8567 C   0  0  1  0  0  0
    1.2538    0.6959   -2.2491 H   0  0  0  0  0  0
    3.0141    1.8196   -2.8247 C   0  0  2  0  0  0
    2.5105    3.2647   -2.7269 C   0  0  0  0  0  0
    1.3369    3.5961   -2.8895 O   0  0  0  0  0  0
    2.9037    1.3588   -4.2203 N   0  0  0  0  0  0
    2.9401   -0.3701   -1.8810 O   0  0  0  0  0  0
   -1.6761    3.6118    1.8739 C   0  0  0  0  0  0
   -2.8538    4.3337    1.5791 O   0  0  0  0  0  0
   -5.9233    3.3796    1.3073 N   0  3  0  0  0  0
   -8.2254    2.7330    2.9570 O   0  0  0  0  0  0
   -7.5491    1.6954    5.5657 O   0  0  0  0  0  0
   -5.7187   -0.3337    6.8071 O   0  0  0  0  0  0
   -6.0806   -1.2596    5.0043 H   0  0  0  0  0  0
   -4.4034   -0.9232    5.3849 H   0  0  0  0  0  0
   -2.5579   -2.0452    1.6514 H   0  0  0  0  0  0
   -0.8872   -1.5463   -0.7617 H   0  0  0  0  0  0
    2.6810    1.4520    2.4113 H   0  0  0  0  0  0
    4.2017    2.3203    2.3233 H   0  0  0  0  0  0
    2.4639    3.6981    2.7199 H   0  0  0  0  0  0
    3.8595   -0.1636    0.8397 H   0  0  0  0  0  0
    3.3060    3.9775   -2.5095 H   0  0  0  0  0  0
    2.9635   -0.6778   -2.7745 H   0  0  0  0  0  0
   -1.5758    3.4809    2.9517 H   0  0  0  0  0  0
   -0.8343    4.2249    1.5498 H   0  0  0  0  0  0
   -2.7751    5.1954    1.9605 H   0  0  0  0  0  0
   -5.4980    4.1353    1.8244 H   0  0  0  0  0  0
   -8.7806    2.8450    3.7147 H   0  0  0  0  0  0
   -7.0280    2.3773    5.9620 H   0  0  0  0  0  0
   -6.6090   -0.0233    6.8771 H   0  0  0  0  0  0
   -6.8452    3.6545    1.0002 H   0  0  0  0  0  0
    1.9301    1.3688   -4.5211 H   0  0  0  0  0  0
    0.4905   -1.8713    0.0533 H   0  0  0  0  0  0
    3.4189    1.9799   -4.8426 H   0  0  0  0  0  0
    4.0669    1.8241   -2.5397 H   0  0  0  0  0  0
   -5.3498    3.1586    0.5057 H   0  0  0  0  0  0
  1  2  1  0  0  0
  1 47  1  0  0  0
  1 48  1  0  0  0
  1 49  1  0  0  0
  2  3  1  0  0  0
  2 12  1  0  0  0
  2  4  1  0  0  0
  4  5  1  0  0  0
  4  6  1  0  0  0
  4 46  1  0  0  0
  6  7  1  0  0  0
  6  8  1  0  0  0
  6 45  1  0  0  0
  8  9  1  0  0  0
  8 10  1  0  0  0
  8 44  1  0  0  0
 10 11  1  0  0  0
 10 12  1  0  0  0
 10 13  1  0  0  0
 13 14  1  0  0  0
 14 15  1  0  0  0
 14 23  1  0  0  0
 14 16  1  0  0  0
 16 17  1  0  0  0
 16 18  1  0  0  0
 16 42  1  0  0  0
 18 19  1  0  0  0
 19 20  1  0  0  0
 19 21  1  0  0  0
 19 27  1  0  0  0
 21 22  1  0  0  0
 21 23  1  0  0  0
 21 26  1  0  0  0
 23 24  1  0  0  0
 23 25  1  0  0  0
 25 50  1  0  0  0
 26 51  1  0  0  0
 26 67  1  0  0  0
 27 28  1  0  0  0
 28 29  1  0  0  0
 28 30  1  0  0  0
 28 35  1  0  0  0
 30 31  1  0  0  0
 30 32  1  0  0  0
 30 34  1  0  0  0
 32 33  1  0  0  0
 32 52  1  0  0  0
 32 53  1  0  0  0
 33 54  1  0  0  0
 34 55  1  0  0  0
 35 36  1  0  0  0
 35 37  1  0  0  0
 35 41  1  0  0  0
 37 38  1  0  0  0
 37 40  1  0  0  0
 37 69  1  0  0  0
 38 39  2  0  0  0
 38 56  1  0  0  0
 40 66  1  0  0  0
 40 68  1  0  0  0
 41 57  1  0  0  0
 42 43  1  0  0  0
 42 58  1  0  0  0
 42 59  1  0  0  0
 43 60  1  0  0  0
 44 61  1  0  0  0
 44 65  1  0  0  0
 44 70  1  0  0  0
 45 62  1  0  0  0
 46 63  1  0  0  0
 47 64  1  0  0  0
M  CHG  1  44   1
M  END
> <s_m_entry_id>
45

> <s_m_entry_name>
biosynth_p1.0.sdf.38

> <s_m_Source_Path>
/Users/Sebastito/Downloads

> <s_m_Source_File>
biosynth_p1.0.sdf.gz

> <i_m_Source_File_Index>
38

> <chiral flag>
1

> <version>
0

> <i_m_ct_enhanced_stereo_status>
0

> <s_m_source_file>
ligprep_vs.maegz

> <i_m_source_file_index>
38

> <i_lp_mmshare_version>
37011

> <r_epik_Ionization_Penalty>
1.24947

> <r_epik_Ionization_Penalty_Charging>
0.216591

> <r_epik_Ionization_Penalty_Neutral>
1.03288

> <r_epik_State_Penalty>
0.980187

> <r_epik_Charging_Adjusted_Penalty>
1.19678

> <i_epik_Tot_Q>
1

> <i_epik_Tot_abs_Q>
1

> <s_epik_Chemistry_Notes>
This compound contains an acetal/aminal-like group ( X-CH(R)-Y where X, Y are N, S, or O) that may be acid/base labile, releasing an aldehyde.

> <i_f3d_flags>
0

> <s_lp_Force_Field>
OPLS_2005

> <r_lp_Energy>
68.0998

> <b_lp_Chiralities_Consistent>
1

> <s_lp_Variant>
ZINC98231169-2

$$$$
ZINC98231169
                    3D
 Structure written by MMmdl.
 71 72  0  0  1  0            999 V2000
   -3.8027    2.6582    6.0176 C   0  0  0  0  0  0
   -4.4651    2.6605    4.6280 C   0  0  2  0  0  0
   -4.3064    3.6255    4.1416 H   0  0  0  0  0  0
   -5.9730    2.3459    4.6875 C   0  0  2  0  0  0
   -6.1311    1.4423    5.2789 H   0  0  0  0  0  0
   -6.5453    2.1625    3.2685 C   0  0  1  0  0  0
   -6.6052    3.1267    2.7601 H   0  0  0  0  0  0
   -5.7000    1.1766    2.4313 C   0  0  2  0  0  0
   -5.7944    0.1685    2.8378 H   0  0  0  0  0  0
   -4.2124    1.5809    2.5355 C   0  0  1  0  0  0
   -4.0343    2.5545    2.0735 H   0  0  0  0  0  0
   -3.8449    1.6240    3.8792 O   0  0  0  0  0  0
   -3.4732    0.6029    1.8743 O   0  0  0  0  0  0
   -2.0897    0.8989    1.7124 C   0  0  2  0  0  0
   -1.7980    1.8558    2.1521 H   0  0  0  0  0  0
   -1.8181    0.9245    0.1924 C   0  0  2  0  0  0
   -2.2374    0.0254   -0.2645 H   0  0  0  0  0  0
   -0.4108    0.9579   -0.0033 O   0  0  0  0  0  0
    0.2552   -0.1974    0.3977 C   0  0  2  0  0  0
   -0.2073   -1.0812   -0.0480 H   0  0  0  0  0  0
    0.1847   -0.2447    1.9383 C   0  0  1  0  0  0
    0.6915    0.6407    2.3264 H   0  0  0  0  0  0
   -1.2983   -0.2505    2.3692 C   0  0  1  0  0  0
   -1.7547   -1.2083    2.1134 H   0  0  0  0  0  0
   -1.3316   -0.0726    3.7728 O   0  0  0  0  0  0
    0.8625   -1.4480    2.4547 N   0  3  0  0  0  0
    1.6000   -0.1314    0.0222 O   0  0  0  0  0  0
    1.9579   -0.5659   -1.2983 C   0  0  1  0  0  0
    1.6153   -1.5951   -1.4197 H   0  0  0  0  0  0
    1.2455    0.3186   -2.3745 C   0  0  1  0  0  0
    0.1715    0.3056   -2.2009 H   0  0  0  0  0  0
    1.7402    1.7782   -2.4010 C   0  0  0  0  0  0
    0.7740    2.6125   -3.0039 O   0  0  0  0  0  0
    1.3704   -0.2518   -3.6630 O   0  0  0  0  0  0
    3.5241   -0.5586   -1.3670 C   0  0  1  0  0  0
    3.8899    0.4185   -1.0476 H   0  0  0  0  0  0
    4.2471   -1.6822   -0.5700 C   0  0  2  0  0  0
    3.9556   -1.6779    0.9315 C   0  0  0  0  0  0
    4.0045   -0.6770    1.6444 O   0  0  0  0  0  0
    5.7135   -1.5507   -0.6781 N   0  3  0  0  0  0
    3.9499   -0.7533   -2.7032 O   0  0  0  0  0  0
   -2.3941    2.1688   -0.5040 C   0  0  0  0  0  0
   -2.4720    1.9409   -1.8947 O   0  0  0  0  0  0
   -6.1290    1.2009    1.0211 N   0  0  0  0  0  0
   -7.8429    1.6123    3.4008 O   0  0  0  0  0  0
   -6.6389    3.4324    5.3039 O   0  0  0  0  0  0
   -2.5570    3.3195    5.9562 O   0  0  0  0  0  0
   -4.4157    3.1972    6.7401 H   0  0  0  0  0  0
   -3.6762    1.6438    6.3972 H   0  0  0  0  0  0
   -1.0420    0.8041    3.9755 H   0  0  0  0  0  0
    0.4229   -2.2749    2.0771 H   0  0  0  0  0  0
    1.8922    2.1448   -1.3855 H   0  0  0  0  0  0
    2.6933    1.8718   -2.9226 H   0  0  0  0  0  0
    1.1025    3.4985   -3.0142 H   0  0  0  0  0  0
    0.8933   -1.0675   -3.6819 H   0  0  0  0  0  0
    3.7070   -2.6674    1.3153 H   0  0  0  0  0  0
    3.4825   -0.1485   -3.2615 H   0  0  0  0  0  0
   -3.4076    2.3722   -0.1609 H   0  0  0  0  0  0
   -1.7953    3.0562   -0.2958 H   0  0  0  0  0  0
   -2.7994    2.7235   -2.3117 H   0  0  0  0  0  0
   -6.0671    2.1452    0.6436 H   0  0  0  0  0  0
   -7.7737    0.7788    3.8405 H   0  0  0  0  0  0
   -6.5263    4.2003    4.7650 H   0  0  0  0  0  0
   -1.9988    2.8502    5.3559 H   0  0  0  0  0  0
   -5.5193    0.6129    0.4546 H   0  0  0  0  0  0
    6.1621   -2.3132   -0.1909 H   0  0  0  0  0  0
    0.7912   -1.4617    3.4625 H   0  0  0  0  0  0
    6.0046   -0.6730   -0.2713 H   0  0  0  0  0  0
    1.8357   -1.4245    2.1867 H   0  0  0  0  0  0
    3.9631   -2.6531   -0.9775 H   0  0  0  0  0  0
    5.9764   -1.5715   -1.6534 H   0  0  0  0  0  0
  1  2  1  0  0  0
  1 47  1  0  0  0
  1 48  1  0  0  0
  1 49  1  0  0  0
  2  3  1  0  0  0
  2 12  1  0  0  0
  2  4  1  0  0  0
  4  5  1  0  0  0
  4  6  1  0  0  0
  4 46  1  0  0  0
  6  7  1  0  0  0
  6  8  1  0  0  0
  6 45  1  0  0  0
  8  9  1  0  0  0
  8 10  1  0  0  0
  8 44  1  0  0  0
 10 11  1  0  0  0
 10 12  1  0  0  0
 10 13  1  0  0  0
 13 14  1  0  0  0
 14 15  1  0  0  0
 14 23  1  0  0  0
 14 16  1  0  0  0
 16 17  1  0  0  0
 16 18  1  0  0  0
 16 42  1  0  0  0
 18 19  1  0  0  0
 19 20  1  0  0  0
 19 21  1  0  0  0
 19 27  1  0  0  0
 21 22  1  0  0  0
 21 23  1  0  0  0
 21 26  1  0  0  0
 23 24  1  0  0  0
 23 25  1  0  0  0
 25 50  1  0  0  0
 26 51  1  0  0  0
 26 67  1  0  0  0
 26 69  1  0  0  0
 27 28  1  0  0  0
 28 29  1  0  0  0
 28 30  1  0  0  0
 28 35  1  0  0  0
 30 31  1  0  0  0
 30 32  1  0  0  0
 30 34  1  0  0  0
 32 33  1  0  0  0
 32 52  1  0  0  0
 32 53  1  0  0  0
 33 54  1  0  0  0
 34 55  1  0  0  0
 35 36  1  0  0  0
 35 37  1  0  0  0
 35 41  1  0  0  0
 37 38  1  0  0  0
 37 40  1  0  0  0
 37 70  1  0  0  0
 38 39  2  0  0  0
 38 56  1  0  0  0
 40 66  1  0  0  0
 40 68  1  0  0  0
 40 71  1  0  0  0
 41 57  1  0  0  0
 42 43  1  0  0  0
 42 58  1  0  0  0
 42 59  1  0  0  0
 43 60  1  0  0  0
 44 61  1  0  0  0
 44 65  1  0  0  0
 45 62  1  0  0  0
 46 63  1  0  0  0
 47 64  1  0  0  0
M  CHG  2  26   1  40   1
M  END
> <s_m_entry_id>
45

> <s_m_entry_name>
biosynth_p1.0.sdf.38

> <s_m_Source_Path>
/Users/Sebastito/Downloads

> <s_m_Source_File>
biosynth_p1.0.sdf.gz

> <i_m_Source_File_Index>
38

> <chiral flag>
1

> <version>
0

> <i_m_ct_enhanced_stereo_status>
0

> <s_m_source_file>
ligprep_vs.maegz

> <i_m_source_file_index>
38

> <i_lp_mmshare_version>
37011

> <r_epik_Ionization_Penalty>
4.02661

> <r_epik_Ionization_Penalty_Charging>
0.657324

> <r_epik_Ionization_Penalty_Neutral>
3.36928

> <r_epik_State_Penalty>
1.08035

> <r_epik_Charging_Adjusted_Penalty>
1.73767

> <i_epik_Tot_Q>
2

> <i_epik_Tot_abs_Q>
2

> <s_epik_Chemistry_Notes>
This compound contains an acetal/aminal-like group ( X-CH(R)-Y where X, Y are N, S, or O) that may be acid/base labile, releasing an aldehyde.

> <i_f3d_flags>
0

> <s_lp_Force_Field>
OPLS_2005

> <r_lp_Energy>
74.3602

> <b_lp_Chiralities_Consistent>
1

> <s_lp_Variant>
ZINC98231169-3

$$$$
ZINC98231169
                    3D
 Structure written by MMmdl.
 70 71  0  0  1  0            999 V2000
   -5.2564   -0.0750    5.6787 C   0  0  0  0  0  0
   -5.4789    1.0216    4.6183 C   0  0  2  0  0  0
   -5.1026    1.9574    5.0367 H   0  0  0  0  0  0
   -6.9402    1.2186    4.1692 C   0  0  2  0  0  0
   -7.3616    0.2684    3.8379 H   0  0  0  0  0  0
   -7.0106    2.2477    3.0261 C   0  0  1  0  0  0
   -6.8436    3.2545    3.4135 H   0  0  0  0  0  0
   -5.9935    1.9360    1.9040 C   0  0  2  0  0  0
   -6.2764    1.0142    1.3933 H   0  0  0  0  0  0
   -4.5971    1.7109    2.5294 C   0  0  1  0  0  0
   -4.2156    2.6293    2.9816 H   0  0  0  0  0  0
   -4.6744    0.7057    3.4925 O   0  0  0  0  0  0
   -3.7514    1.3094    1.4989 O   0  0  0  0  0  0
   -2.3724    1.2225    1.8428 C   0  0  2  0  0  0
   -2.1550    1.5721    2.8551 H   0  0  0  0  0  0
   -1.6247    2.1112    0.8224 C   0  0  2  0  0  0
   -1.9720    1.8715   -0.1851 H   0  0  0  0  0  0
   -0.2307    1.8504    0.9235 O   0  0  0  0  0  0
    0.1319    0.5541    0.5616 C   0  0  2  0  0  0
   -0.2731    0.3022   -0.4198 H   0  0  0  0  0  0
   -0.4174   -0.4001    1.6363 C   0  0  1  0  0  0
    0.0239   -0.1192    2.5943 H   0  0  0  0  0  0
   -1.9520   -0.2540    1.6841 C   0  0  1  0  0  0
   -2.3973   -0.6717    0.7795 H   0  0  0  0  0  0
   -2.4038   -0.9767    2.8133 O   0  0  0  0  0  0
   -0.0401   -1.7928    1.3292 N   0  3  0  0  0  0
    1.5181    0.4066    0.5354 O   0  0  0  0  0  0
    2.2718    1.3385   -0.2464 C   0  0  1  0  0  0
    2.0703    2.3001    0.2245 H   0  0  0  0  0  0
    3.7821    1.0873    0.0051 C   0  0  1  0  0  0
    4.3488    1.8602   -0.5149 H   0  0  0  0  0  0
    4.1467    1.1355    1.5005 C   0  0  0  0  0  0
    5.5421    1.2790    1.6589 O   0  0  0  0  0  0
    4.1812   -0.1628   -0.5227 O   0  0  0  0  0  0
    1.8155    1.4654   -1.7401 C   0  0  1  0  0  0
    0.7453    1.6655   -1.7869 H   0  0  0  0  0  0
    2.5288    2.5702   -2.5697 C   0  0  2  0  0  0
    2.5264    3.9238   -1.8488 C   0  0  0  0  0  0
    1.5131    4.4661   -1.4095 O   0  0  0  0  0  0
    1.9039    2.7266   -3.8946 N   0  0  0  0  0  0
    2.0653    0.2362   -2.3948 O   0  0  0  0  0  0
   -1.8229    3.6131    1.0885 C   0  0  0  0  0  0
   -1.4979    4.3544   -0.0681 O   0  0  0  0  0  0
   -5.9322    3.0536    0.9442 N   0  0  0  0  0  0
   -8.3075    2.1578    2.4670 O   0  0  0  0  0  0
   -7.6852    1.7096    5.2681 O   0  0  0  0  0  0
   -5.8843   -1.2904    5.3247 O   0  0  0  0  0  0
   -4.1911   -0.2478    5.8351 H   0  0  0  0  0  0
   -5.6684    0.2467    6.6356 H   0  0  0  0  0  0
   -3.3380   -0.8493    2.8971 H   0  0  0  0  0  0
   -0.4196   -2.0583    0.4321 H   0  0  0  0  0  0
    3.6740    1.9936    1.9794 H   0  0  0  0  0  0
    3.8015    0.2442    2.0258 H   0  0  0  0  0  0
    5.9654    0.5376    1.2528 H   0  0  0  0  0  0
    3.9266   -0.1979   -1.4329 H   0  0  0  0  0  0
    3.5197    4.3662   -1.7729 H   0  0  0  0  0  0
    1.7716    0.3134   -3.2905 H   0  0  0  0  0  0
   -2.8661    3.8275    1.3196 H   0  0  0  0  0  0
   -1.2281    3.9512    1.9376 H   0  0  0  0  0  0
   -0.5782    4.2374   -0.2543 H   0  0  0  0  0  0
   -5.6844    3.9199    1.4196 H   0  0  0  0  0  0
   -8.9390    2.3047    3.1546 H   0  0  0  0  0  0
   -7.3131    2.5351    5.5382 H   0  0  0  0  0  0
   -5.7598   -1.9099    6.0278 H   0  0  0  0  0  0
   -5.2109    2.8811    0.2455 H   0  0  0  0  0  0
    0.9379    3.0374   -3.7983 H   0  0  0  0  0  0
   -0.4087   -2.4020    2.0456 H   0  0  0  0  0  0
    2.3948    3.4348   -4.4389 H   0  0  0  0  0  0
    0.9669   -1.8681    1.3053 H   0  0  0  0  0  0
    3.5698    2.2763   -2.7071 H   0  0  0  0  0  0
  1  2  1  0  0  0
  1 47  1  0  0  0
  1 48  1  0  0  0
  1 49  1  0  0  0
  2  3  1  0  0  0
  2 12  1  0  0  0
  2  4  1  0  0  0
  4  5  1  0  0  0
  4  6  1  0  0  0
  4 46  1  0  0  0
  6  7  1  0  0  0
  6  8  1  0  0  0
  6 45  1  0  0  0
  8  9  1  0  0  0
  8 10  1  0  0  0
  8 44  1  0  0  0
 10 11  1  0  0  0
 10 12  1  0  0  0
 10 13  1  0  0  0
 13 14  1  0  0  0
 14 15  1  0  0  0
 14 23  1  0  0  0
 14 16  1  0  0  0
 16 17  1  0  0  0
 16 18  1  0  0  0
 16 42  1  0  0  0
 18 19  1  0  0  0
 19 20  1  0  0  0
 19 21  1  0  0  0
 19 27  1  0  0  0
 21 22  1  0  0  0
 21 23  1  0  0  0
 21 26  1  0  0  0
 23 24  1  0  0  0
 23 25  1  0  0  0
 25 50  1  0  0  0
 26 51  1  0  0  0
 26 67  1  0  0  0
 26 69  1  0  0  0
 27 28  1  0  0  0
 28 29  1  0  0  0
 28 30  1  0  0  0
 28 35  1  0  0  0
 30 31  1  0  0  0
 30 32  1  0  0  0
 30 34  1  0  0  0
 32 33  1  0  0  0
 32 52  1  0  0  0
 32 53  1  0  0  0
 33 54  1  0  0  0
 34 55  1  0  0  0
 35 36  1  0  0  0
 35 37  1  0  0  0
 35 41  1  0  0  0
 37 38  1  0  0  0
 37 40  1  0  0  0
 37 70  1  0  0  0
 38 39  2  0  0  0
 38 56  1  0  0  0
 40 66  1  0  0  0
 40 68  1  0  0  0
 41 57  1  0  0  0
 42 43  1  0  0  0
 42 58  1  0  0  0
 42 59  1  0  0  0
 43 60  1  0  0  0
 44 61  1  0  0  0
 44 65  1  0  0  0
 45 62  1  0  0  0
 46 63  1  0  0  0
 47 64  1  0  0  0
M  CHG  1  26   1
M  END
> <s_m_entry_id>
45

> <s_m_entry_name>
biosynth_p1.0.sdf.38

> <s_m_Source_Path>
/Users/Sebastito/Downloads

> <s_m_Source_File>
biosynth_p1.0.sdf.gz

> <i_m_Source_File_Index>
38

> <chiral flag>
1

> <version>
0

> <i_m_ct_enhanced_stereo_status>
0

> <s_m_source_file>
ligprep_vs.maegz

> <i_m_source_file_index>
38

> <i_lp_mmshare_version>
37011

> <r_epik_Ionization_Penalty>
1.38

> <r_epik_Ionization_Penalty_Charging>
0.268472

> <r_epik_Ionization_Penalty_Neutral>
1.11152

> <r_epik_State_Penalty>
1.13723

> <r_epik_Charging_Adjusted_Penalty>
1.40571

> <i_epik_Tot_Q>
1

> <i_epik_Tot_abs_Q>
1

> <s_epik_Chemistry_Notes>
This compound contains an acetal/aminal-like group ( X-CH(R)-Y where X, Y are N, S, or O) that may be acid/base labile, releasing an aldehyde.

> <i_f3d_flags>
0

> <s_lp_Force_Field>
OPLS_2005

> <r_lp_Energy>
78.043

> <b_lp_Chiralities_Consistent>
1

> <s_lp_Variant>
ZINC98231169-4

$$$$
ZINC98231169
                    3D
 Structure written by MMmdl.
 70 71  0  0  1  0            999 V2000
   -5.1446    0.1943    5.8307 C   0  0  0  0  0  0
   -5.4291    1.1715    4.6724 C   0  0  2  0  0  0
   -5.0588    2.1517    4.9797 H   0  0  0  0  0  0
   -6.9092    1.2954    4.2582 C   0  0  2  0  0  0
   -7.3195    0.3112    4.0271 H   0  0  0  0  0  0
   -7.0366    2.2122    3.0287 C   0  0  1  0  0  0
   -6.8597    3.2513    3.3127 H   0  0  0  0  0  0
   -6.0624    1.7959    1.9043 C   0  0  2  0  0  0
   -6.3455    0.8167    1.5152 H   0  0  0  0  0  0
   -4.6380    1.6700    2.4953 C   0  0  1  0  0  0
   -4.2650    2.6349    2.8451 H   0  0  0  0  0  0
   -4.6581    0.7601    3.5538 O   0  0  0  0  0  0
   -3.8119    1.1951    1.4811 O   0  0  0  0  0  0
   -2.4321    1.1018    1.8202 C   0  0  2  0  0  0
   -2.2298    1.3231    2.8711 H   0  0  0  0  0  0
   -1.6640    2.1064    0.9343 C   0  0  2  0  0  0
   -1.9634    1.9988   -0.1103 H   0  0  0  0  0  0
   -0.2759    1.8231    1.0275 O   0  0  0  0  0  0
    0.0943    0.5877    0.5006 C   0  0  2  0  0  0
   -0.2819    0.4774   -0.5175 H   0  0  0  0  0  0
   -0.4780   -0.5210    1.4061 C   0  0  1  0  0  0
   -0.0269   -0.4048    2.3929 H   0  0  0  0  0  0
   -2.0103   -0.3479    1.5023 C   0  0  1  0  0  0
   -2.4804   -0.6756    0.5733 H   0  0  0  0  0  0
   -2.4503   -1.1582    2.5760 O   0  0  0  0  0  0
   -0.1501   -1.8440    0.8464 N   0  0  0  0  0  0
    1.4827    0.4511    0.5077 O   0  0  0  0  0  0
    2.2566    1.4419   -0.1742 C   0  0  1  0  0  0
    2.0129    2.3790    0.3272 H   0  0  0  0  0  0
    3.7587    1.2087    0.1454 C   0  0  1  0  0  0
    4.3207    2.0738   -0.2076 H   0  0  0  0  0  0
    4.0226    1.0461    1.6544 C   0  0  0  0  0  0
    5.3836    1.2917    1.9430 O   0  0  0  0  0  0
    4.2652    0.0766   -0.5356 O   0  0  0  0  0  0
    1.8722    1.6340   -1.6769 C   0  0  1  0  0  0
    0.8164    1.8936   -1.7545 H   0  0  0  0  0  0
    2.6705    2.7343   -2.4213 C   0  0  2  0  0  0
    2.5421    4.1040   -1.7483 C   0  0  0  0  0  0
    3.4126    4.5939   -1.0332 O   0  0  0  0  0  0
    2.1701    2.9147   -3.7968 N   0  3  0  0  0  0
    2.0658    0.4150   -2.3700 O   0  0  0  0  0  0
   -1.8360    3.5764    1.3599 C   0  0  0  0  0  0
   -3.0313    4.1216    0.8443 O   0  0  0  0  0  0
   -6.0795    2.7963    0.8221 N   0  0  0  0  0  0
   -8.3546    2.0687    2.5330 O   0  0  0  0  0  0
   -7.6309    1.8689    5.3319 O   0  0  0  0  0  0
   -5.8093   -1.0411    5.6633 O   0  0  0  0  0  0
   -4.0729    0.0210    5.9320 H   0  0  0  0  0  0
   -5.4844    0.6283    6.7714 H   0  0  0  0  0  0
   -2.0625   -0.8358    3.3748 H   0  0  0  0  0  0
    0.8603   -1.9681    0.7994 H   0  0  0  0  0  0
    3.4340    1.7676    2.2220 H   0  0  0  0  0  0
    3.7379    0.0533    2.0056 H   0  0  0  0  0  0
    5.5229    1.1656    2.8694 H   0  0  0  0  0  0
    4.3617    0.2888   -1.4504 H   0  0  0  0  0  0
    1.6013    4.6091   -1.9696 H   0  0  0  0  0  0
    2.9318    0.0887   -2.1781 H   0  0  0  0  0  0
   -1.8101    3.6828    2.4447 H   0  0  0  0  0  0
   -1.0158    4.1753    0.9625 H   0  0  0  0  0  0
   -3.0928    5.0247    1.1161 H   0  0  0  0  0  0
   -7.0280    2.9094    0.4675 H   0  0  0  0  0  0
   -8.9567    2.2978    3.2247 H   0  0  0  0  0  0
   -7.5915    1.2757    6.0667 H   0  0  0  0  0  0
   -5.5874   -1.6039    6.3895 H   0  0  0  0  0  0
   -5.7873    3.7058    1.1755 H   0  0  0  0  0  0
    2.7226    3.6164   -4.2688 H   0  0  0  0  0  0
   -0.5157   -2.5822    1.4464 H   0  0  0  0  0  0
    1.2039    3.2075   -3.7688 H   0  0  0  0  0  0
    3.7240    2.4582   -2.4758 H   0  0  0  0  0  0
    2.2392    2.0380   -4.2940 H   0  0  0  0  0  0
  1  2  1  0  0  0
  1 47  1  0  0  0
  1 48  1  0  0  0
  1 49  1  0  0  0
  2  3  1  0  0  0
  2 12  1  0  0  0
  2  4  1  0  0  0
  4  5  1  0  0  0
  4  6  1  0  0  0
  4 46  1  0  0  0
  6  7  1  0  0  0
  6  8  1  0  0  0
  6 45  1  0  0  0
  8  9  1  0  0  0
  8 10  1  0  0  0
  8 44  1  0  0  0
 10 11  1  0  0  0
 10 12  1  0  0  0
 10 13  1  0  0  0
 13 14  1  0  0  0
 14 15  1  0  0  0
 14 23  1  0  0  0
 14 16  1  0  0  0
 16 17  1  0  0  0
 16 18  1  0  0  0
 16 42  1  0  0  0
 18 19  1  0  0  0
 19 20  1  0  0  0
 19 21  1  0  0  0
 19 27  1  0  0  0
 21 22  1  0  0  0
 21 23  1  0  0  0
 21 26  1  0  0  0
 23 24  1  0  0  0
 23 25  1  0  0  0
 25 50  1  0  0  0
 26 51  1  0  0  0
 26 67  1  0  0  0
 27 28  1  0  0  0
 28 29  1  0  0  0
 28 30  1  0  0  0
 28 35  1  0  0  0
 30 31  1  0  0  0
 30 32  1  0  0  0
 30 34  1  0  0  0
 32 33  1  0  0  0
 32 52  1  0  0  0
 32 53  1  0  0  0
 33 54  1  0  0  0
 34 55  1  0  0  0
 35 36  1  0  0  0
 35 37  1  0  0  0
 35 41  1  0  0  0
 37 38  1  0  0  0
 37 40  1  0  0  0
 37 69  1  0  0  0
 38 39  2  0  0  0
 38 56  1  0  0  0
 40 66  1  0  0  0
 40 68  1  0  0  0
 40 70  1  0  0  0
 41 57  1  0  0  0
 42 43  1  0  0  0
 42 58  1  0  0  0
 42 59  1  0  0  0
 43 60  1  0  0  0
 44 61  1  0  0  0
 44 65  1  0  0  0
 45 62  1  0  0  0
 46 63  1  0  0  0
 47 64  1  0  0  0
M  CHG  1  40   1
M  END
> <s_m_entry_id>
45

> <s_m_entry_name>
biosynth_p1.0.sdf.38

> <s_m_Source_Path>
/Users/Sebastito/Downloads

> <s_m_Source_File>
biosynth_p1.0.sdf.gz

> <i_m_Source_File_Index>
38

> <chiral flag>
1

> <version>
0

> <i_m_ct_enhanced_stereo_status>
0

> <s_m_source_file>
ligprep_vs.maegz

> <i_m_source_file_index>
38

> <i_lp_mmshare_version>
37011

> <r_epik_Ionization_Penalty>
4.2582

> <r_epik_Ionization_Penalty_Charging>
0.372387

> <r_epik_Ionization_Penalty_Neutral>
3.88581

> <r_epik_State_Penalty>
1.42276

> <r_epik_Charging_Adjusted_Penalty>
1.79515

> <i_epik_Tot_Q>
1

> <i_epik_Tot_abs_Q>
1

> <s_epik_Chemistry_Notes>
This compound contains an acetal/aminal-like group ( X-CH(R)-Y where X, Y are N, S, or O) that may be acid/base labile, releasing an aldehyde.

> <i_f3d_flags>
0

> <s_lp_Force_Field>
OPLS_2005

> <r_lp_Energy>
78.7125

> <b_lp_Chiralities_Consistent>
1

> <s_lp_Variant>
ZINC98231169-5

$$$$
ZINC98231169
                    3D
 Structure written by MMmdl.
 69 70  0  0  1  0            999 V2000
   -5.1887   -0.1077    5.6810 C   0  0  0  0  0  0
   -5.3964    1.0411    4.6777 C   0  0  2  0  0  0
   -4.9845    1.9689    5.0816 H   0  0  0  0  0  0
   -6.8762    1.2429    4.2960 C   0  0  2  0  0  0
   -7.3131    0.2825    4.0173 H   0  0  0  0  0  0
   -7.0074    2.2467    3.1326 C   0  0  1  0  0  0
   -6.8115    3.2599    3.4889 H   0  0  0  0  0  0
   -6.0581    1.9076    1.9615 C   0  0  2  0  0  0
   -6.3818    0.9855    1.4762 H   0  0  0  0  0  0
   -4.6409    1.6640    2.5232 C   0  0  1  0  0  0
   -4.2232    2.5785    2.9507 H   0  0  0  0  0  0
   -4.7066    0.6685    3.4950 O   0  0  0  0  0  0
   -3.8442    1.2348    1.4655 O   0  0  0  0  0  0
   -2.4535    1.1432    1.7607 C   0  0  2  0  0  0
   -2.2017    1.5029    2.7615 H   0  0  0  0  0  0
   -1.7300    2.0174    0.7199 C   0  0  2  0  0  0
   -2.0610    1.7425   -0.2840 H   0  0  0  0  0  0
   -0.3401    1.7786    0.8675 O   0  0  0  0  0  0
    0.0581    0.5016    0.4804 C   0  0  2  0  0  0
   -0.2985    0.2824   -0.5273 H   0  0  0  0  0  0
   -0.5051   -0.5175    1.4941 C   0  0  1  0  0  0
   -0.0361   -0.3098    2.4572 H   0  0  0  0  0  0
   -2.0372   -0.3347    1.6066 C   0  0  1  0  0  0
   -2.5327   -0.7684    0.7365 H   0  0  0  0  0  0
   -2.4431   -1.0087    2.7825 O   0  0  0  0  0  0
   -0.1843   -1.8869    1.0540 N   0  0  0  0  0  0
    1.4481    0.3901    0.5143 O   0  0  0  0  0  0
    2.2150    1.3631   -0.2022 C   0  0  1  0  0  0
    1.9518    2.3119    0.2643 H   0  0  0  0  0  0
    3.7190    1.1583    0.1349 C   0  0  1  0  0  0
    4.2922    1.9834   -0.2878 H   0  0  0  0  0  0
    4.0179    1.1019    1.6457 C   0  0  0  0  0  0
    3.7023    2.3293    2.2692 O   0  0  0  0  0  0
    4.2270   -0.0170   -0.4621 O   0  0  0  0  0  0
    1.8353    1.4996   -1.7147 C   0  0  1  0  0  0
    0.7711    1.7164   -1.8075 H   0  0  0  0  0  0
    2.6077    2.5892   -2.5099 C   0  0  2  0  0  0
    2.6307    3.9348   -1.7741 C   0  0  0  0  0  0
    1.6226    4.5698   -1.4676 O   0  0  0  0  0  0
    2.0286    2.7787   -3.8517 N   0  0  0  0  0  0
    2.0929    0.2652   -2.3571 O   0  0  0  0  0  0
   -1.9545    3.5222    0.9418 C   0  0  0  0  0  0
   -1.6146    4.2344   -0.2291 O   0  0  0  0  0  0
   -6.0322    3.0152    0.9892 N   0  0  0  0  0  0
   -8.3323    2.1605    2.6414 O   0  0  0  0  0  0
   -7.5632    1.7668    5.4173 O   0  0  0  0  0  0
   -3.9080   -0.0094    6.2669 O   0  0  0  0  0  0
   -5.9170   -0.0515    6.4901 H   0  0  0  0  0  0
   -5.3126   -1.0807    5.2040 H   0  0  0  0  0  0
   -3.3776   -0.9024    2.8775 H   0  0  0  0  0  0
   -0.6145   -2.0786    0.1506 H   0  0  0  0  0  0
    3.4633    0.2977    2.1301 H   0  0  0  0  0  0
    5.0771    0.9035    1.8136 H   0  0  0  0  0  0
    3.8895    2.2534    3.1924 H   0  0  0  0  0  0
    3.7035   -0.7479   -0.1706 H   0  0  0  0  0  0
    3.6412    4.2829   -1.5599 H   0  0  0  0  0  0
    1.8271    0.3418   -3.2610 H   0  0  0  0  0  0
   -3.0042    3.7297    1.1474 H   0  0  0  0  0  0
   -1.3790    3.8898    1.7919 H   0  0  0  0  0  0
   -1.7479    5.1562   -0.0698 H   0  0  0  0  0  0
   -6.9703    3.1863    0.6295 H   0  0  0  0  0  0
   -8.4875    1.2757    2.3486 H   0  0  0  0  0  0
   -7.5083    1.1426    6.1246 H   0  0  0  0  0  0
   -3.2588   -0.0996    5.5857 H   0  0  0  0  0  0
   -5.7342    3.8775    1.4426 H   0  0  0  0  0  0
    1.0647    3.1016   -3.7770 H   0  0  0  0  0  0
    0.8218   -1.9846    0.9249 H   0  0  0  0  0  0
    2.5460    3.4907   -4.3651 H   0  0  0  0  0  0
    3.6425    2.2621   -2.6177 H   0  0  0  0  0  0
  1  2  1  0  0  0
  1 47  1  0  0  0
  1 48  1  0  0  0
  1 49  1  0  0  0
  2  3  1  0  0  0
  2 12  1  0  0  0
  2  4  1  0  0  0
  4  5  1  0  0  0
  4  6  1  0  0  0
  4 46  1  0  0  0
  6  7  1  0  0  0
  6  8  1  0  0  0
  6 45  1  0  0  0
  8  9  1  0  0  0
  8 10  1  0  0  0
  8 44  1  0  0  0
 10 11  1  0  0  0
 10 12  1  0  0  0
 10 13  1  0  0  0
 13 14  1  0  0  0
 14 15  1  0  0  0
 14 23  1  0  0  0
 14 16  1  0  0  0
 16 17  1  0  0  0
 16 18  1  0  0  0
 16 42  1  0  0  0
 18 19  1  0  0  0
 19 20  1  0  0  0
 19 21  1  0  0  0
 19 27  1  0  0  0
 21 22  1  0  0  0
 21 23  1  0  0  0
 21 26  1  0  0  0
 23 24  1  0  0  0
 23 25  1  0  0  0
 25 50  1  0  0  0
 26 51  1  0  0  0
 26 67  1  0  0  0
 27 28  1  0  0  0
 28 29  1  0  0  0
 28 30  1  0  0  0
 28 35  1  0  0  0
 30 31  1  0  0  0
 30 32  1  0  0  0
 30 34  1  0  0  0
 32 33  1  0  0  0
 32 52  1  0  0  0
 32 53  1  0  0  0
 33 54  1  0  0  0
 34 55  1  0  0  0
 35 36  1  0  0  0
 35 37  1  0  0  0
 35 41  1  0  0  0
 37 38  1  0  0  0
 37 40  1  0  0  0
 37 69  1  0  0  0
 38 39  2  0  0  0
 38 56  1  0  0  0
 40 66  1  0  0  0
 40 68  1  0  0  0
 41 57  1  0  0  0
 42 43  1  0  0  0
 42 58  1  0  0  0
 42 59  1  0  0  0
 43 60  1  0  0  0
 44 61  1  0  0  0
 44 65  1  0  0  0
 45 62  1  0  0  0
 46 63  1  0  0  0
 47 64  1  0  0  0
M  END
> <s_m_entry_id>
45

> <s_m_entry_name>
biosynth_p1.0.sdf.38

> <s_m_Source_Path>
/Users/Sebastito/Downloads

> <s_m_Source_File>
biosynth_p1.0.sdf.gz

> <i_m_Source_File_Index>
38

> <chiral flag>
1

> <version>
0

> <i_m_ct_enhanced_stereo_status>
0

> <s_m_source_file>
ligprep_vs.maegz

> <i_m_source_file_index>
38

> <i_lp_mmshare_version>
37011

> <r_epik_Ionization_Penalty>
1.75103

> <r_epik_Ionization_Penalty_Charging>
0

> <r_epik_Ionization_Penalty_Neutral>
1.75103

> <r_epik_State_Penalty>
1.4979

> <r_epik_Charging_Adjusted_Penalty>
1.4979

> <i_epik_Tot_Q>
0

> <i_epik_Tot_abs_Q>
0

> <s_epik_Chemistry_Notes>
This compound contains an acetal/aminal-like group ( X-CH(R)-Y where X, Y are N, S, or O) that may be acid/base labile, releasing an aldehyde.

> <i_f3d_flags>
0

> <s_lp_Force_Field>
OPLS_2005

> <r_lp_Energy>
78.9765

> <b_lp_Chiralities_Consistent>
1

> <s_lp_Variant>
ZINC98231169-6

$$$$
ZINC98231219
                    3D
 Structure written by MMmdl.
 79 84  0  0  1  0            999 V2000
   -1.0243   -1.5563   -4.2695 C   0  0  0  0  0  0
   -0.8339   -0.3002   -3.4032 C   0  0  0  0  0  0
    0.1340   -0.5525   -2.4428 O   0  0  0  0  0  0
   -0.5453   -1.0033   -1.2893 C   0  0  2  0  0  0
   -0.5557   -2.0934   -1.2544 H   0  0  0  0  0  0
   -1.9284   -0.4062   -1.4370 C   0  0  2  0  0  0
   -2.7283   -1.0953   -1.1622 H   0  0  0  0  0  0
   -2.0373    0.0053   -2.7844 O   0  0  0  0  0  0
   -1.9060    0.8086   -0.4974 C   0  0  2  0  0  0
   -2.2159    1.7224   -1.0078 H   0  0  0  0  0  0
   -0.5848    0.9339   -0.0710 O   0  0  0  0  0  0
    0.0052   -0.3557   -0.0173 C   0  0  2  0  0  0
   -0.3939   -0.8769    0.8553 H   0  0  0  0  0  0
    1.5406   -0.2608    0.0818 C   0  0  1  0  0  0
    1.9207    0.2874   -0.7812 H   0  0  0  0  0  0
    1.9664    0.4817    1.3576 C   0  0  0  0  0  0
    3.3690    0.7352    1.2983 O   0  0  0  0  0  0
    4.0094    1.3198    2.4448 C   0  0  0  0  0  0
    5.4699    1.6340    2.0665 C   0  0  0  0  0  0
    6.0524    1.0795    0.9005 C   0  0  0  0  0  0
    7.3926    1.3530    0.5655 C   0  0  0  0  0  0
    8.1735    2.1790    1.3937 C   0  0  0  0  0  0
    7.6135    2.7277    2.5613 C   0  0  0  0  0  0
    6.2739    2.4534    2.8966 C   0  0  0  0  0  0
    3.2461    2.6190    2.8108 C   0  0  0  0  0  0
    3.4948    3.8146    2.0925 C   0  0  0  0  0  0
    2.7767    4.9928    2.3726 C   0  0  0  0  0  0
    1.7790    4.9915    3.3633 C   0  0  0  0  0  0
    1.4945    3.8064    4.0647 C   0  0  0  0  0  0
    2.2153    2.6299    3.7847 C   0  0  0  0  0  0
    4.1048    0.2918    3.5951 C   0  0  0  0  0  0
    4.0578   -1.0959    3.3169 C   0  0  0  0  0  0
    4.1914   -2.0467    4.3470 C   0  0  0  0  0  0
    4.3948   -1.6256    5.6733 C   0  0  0  0  0  0
    4.4768   -0.2523    5.9642 C   0  0  0  0  0  0
    4.3444    0.6962    4.9322 C   0  0  0  0  0  0
    2.1402   -1.6077    0.0617 N   0  3  0  0  0  0
   -2.7713    0.5549    0.5620 O   0  0  0  0  0  0
   -2.8983    1.6437    1.4664 C   0  0  0  0  0  0
   -3.8340    1.3186    2.6144 C   0  0  0  0  0  0
   -5.0286    0.6052    2.3783 C   0  0  0  0  0  0
   -5.9046    0.3183    3.4434 C   0  0  0  0  0  0
   -5.5934    0.7493    4.7474 C   0  0  0  0  0  0
   -4.4069    1.4693    4.9858 C   0  0  0  0  0  0
   -3.5302    1.7559    3.9212 C   0  0  0  0  0  0
   -0.3903    0.9177   -4.2208 C   0  0  0  0  0  0
   -1.3619   -2.3939   -3.6586 H   0  0  0  0  0  0
   -0.0820   -1.8259   -4.7474 H   0  0  0  0  0  0
   -1.7695   -1.3655   -5.0423 H   0  0  0  0  0  0
    1.4267    1.4270    1.4080 H   0  0  0  0  0  0
    1.6965   -0.0927    2.2444 H   0  0  0  0  0  0
    5.4848    0.4349    0.2467 H   0  0  0  0  0  0
    7.8225    0.9258   -0.3283 H   0  0  0  0  0  0
    9.2011    2.3887    1.1356 H   0  0  0  0  0  0
    8.2114    3.3595    3.2015 H   0  0  0  0  0  0
    5.8647    2.8866    3.7967 H   0  0  0  0  0  0
    4.2387    3.8398    1.3100 H   0  0  0  0  0  0
    2.9866    5.8966    1.8198 H   0  0  0  0  0  0
    1.2245    5.8937    3.5752 H   0  0  0  0  0  0
    0.7156    3.7964    4.8127 H   0  0  0  0  0  0
    1.9512    1.7298    4.3190 H   0  0  0  0  0  0
    3.9276   -1.4491    2.3056 H   0  0  0  0  0  0
    4.1468   -3.1011    4.1179 H   0  0  0  0  0  0
    4.5006   -2.3543    6.4637 H   0  0  0  0  0  0
    4.6482    0.0753    6.9790 H   0  0  0  0  0  0
    4.4270    1.7436    5.1814 H   0  0  0  0  0  0
    1.8085   -2.1391    0.8539 H   0  0  0  0  0  0
   -1.9193    1.9107    1.8676 H   0  0  0  0  0  0
   -3.2858    2.5203    0.9453 H   0  0  0  0  0  0
   -5.2771    0.2753    1.3801 H   0  0  0  0  0  0
   -6.8165   -0.2305    3.2594 H   0  0  0  0  0  0
   -6.2661    0.5306    5.5637 H   0  0  0  0  0  0
   -4.1701    1.8035    5.9852 H   0  0  0  0  0  0
   -2.6241    2.3122    4.1124 H   0  0  0  0  0  0
   -0.2728    1.7816   -3.5656 H   0  0  0  0  0  0
   -1.1367    1.1502   -4.9809 H   0  0  0  0  0  0
    0.5625    0.7136   -4.7098 H   0  0  0  0  0  0
    3.1460   -1.5252    0.1095 H   0  0  0  0  0  0
    1.8830   -2.0788   -0.7941 H   0  0  0  0  0  0
  1  2  1  0  0  0
  1 47  1  0  0  0
  1 48  1  0  0  0
  1 49  1  0  0  0
  2  8  1  0  0  0
  2  3  1  0  0  0
  2 46  1  0  0  0
  3  4  1  0  0  0
  4  5  1  0  0  0
  4 12  1  0  0  0
  4  6  1  0  0  0
  6  7  1  0  0  0
  6  8  1  0  0  0
  6  9  1  0  0  0
  9 10  1  0  0  0
  9 11  1  0  0  0
  9 38  1  0  0  0
 11 12  1  0  0  0
 12 13  1  0  0  0
 12 14  1  0  0  0
 14 15  1  0  0  0
 14 16  1  0  0  0
 14 37  1  0  0  0
 16 17  1  0  0  0
 16 50  1  0  0  0
 16 51  1  0  0  0
 17 18  1  0  0  0
 18 19  1  0  0  0
 18 25  1  0  0  0
 18 31  1  0  0  0
 19 24  2  0  0  0
 19 20  1  0  0  0
 20 21  2  0  0  0
 20 52  1  0  0  0
 21 22  1  0  0  0
 21 53  1  0  0  0
 22 23  2  0  0  0
 22 54  1  0  0  0
 23 24  1  0  0  0
 23 55  1  0  0  0
 24 56  1  0  0  0
 25 30  2  0  0  0
 25 26  1  0  0  0
 26 27  2  0  0  0
 26 57  1  0  0  0
 27 28  1  0  0  0
 27 58  1  0  0  0
 28 29  2  0  0  0
 28 59  1  0  0  0
 29 30  1  0  0  0
 29 60  1  0  0  0
 30 61  1  0  0  0
 31 36  2  0  0  0
 31 32  1  0  0  0
 32 33  2  0  0  0
 32 62  1  0  0  0
 33 34  1  0  0  0
 33 63  1  0  0  0
 34 35  2  0  0  0
 34 64  1  0  0  0
 35 36  1  0  0  0
 35 65  1  0  0  0
 36 66  1  0  0  0
 37 67  1  0  0  0
 37 78  1  0  0  0
 37 79  1  0  0  0
 38 39  1  0  0  0
 39 40  1  0  0  0
 39 68  1  0  0  0
 39 69  1  0  0  0
 40 45  2  0  0  0
 40 41  1  0  0  0
 41 42  2  0  0  0
 41 70  1  0  0  0
 42 43  1  0  0  0
 42 71  1  0  0  0
 43 44  2  0  0  0
 43 72  1  0  0  0
 44 45  1  0  0  0
 44 73  1  0  0  0
 45 74  1  0  0  0
 46 75  1  0  0  0
 46 76  1  0  0  0
 46 77  1  0  0  0
M  CHG  1  37   1
M  END
> <s_m_entry_id>
46

> <s_m_entry_name>
biosynth_p1.0.sdf.39

> <s_m_Source_Path>
/Users/Sebastito/Downloads

> <s_m_Source_File>
biosynth_p1.0.sdf.gz

> <i_m_Source_File_Index>
39

> <chiral flag>
1

> <version>
0

> <i_m_ct_enhanced_stereo_status>
0

> <s_m_source_file>
ligprep_vs.maegz

> <i_m_source_file_index>
39

> <i_lp_mmshare_version>
37011

> <r_epik_Ionization_Penalty>
0.0548119

> <r_epik_Ionization_Penalty_Charging>
0.0548119

> <r_epik_Ionization_Penalty_Neutral>
1.32874e-14

> <r_epik_State_Penalty>
0.0471763

> <r_epik_Charging_Adjusted_Penalty>
0.101988

> <i_epik_Tot_Q>
1

> <i_epik_Tot_abs_Q>
1

> <s_epik_Chemistry_Notes>
This compound contains an acetal/aminal-like group ( X-CH(R)-Y where X, Y are N, S, or O) that may be acid/base labile, releasing an aldehyde.

> <i_f3d_flags>
0

> <s_lp_Force_Field>
OPLS_2005

> <r_lp_Energy>
60.0105

> <b_lp_Chiralities_Consistent>
1

> <s_lp_Variant>
ZINC98231219-1

$$$$
ZINC98231219
                    3D
 Structure written by MMmdl.
 78 83  0  0  1  0            999 V2000
   -1.0226   -1.6666   -4.2053 C   0  0  0  0  0  0
   -0.7301   -0.3856   -3.4055 C   0  0  0  0  0  0
    0.1668   -0.6760   -2.3894 O   0  0  0  0  0  0
   -0.6035   -1.0069   -1.2522 C   0  0  2  0  0  0
   -0.7190   -2.0886   -1.1726 H   0  0  0  0  0  0
   -1.9164   -0.2931   -1.4951 C   0  0  2  0  0  0
   -2.7895   -0.8993   -1.2493 H   0  0  0  0  0  0
   -1.9146    0.0845   -2.8575 O   0  0  0  0  0  0
   -1.8345    0.9428   -0.5882 C   0  0  2  0  0  0
   -2.0493    1.8628   -1.1345 H   0  0  0  0  0  0
   -0.5260    0.9741   -0.1096 O   0  0  0  0  0  0
   -0.0530   -0.3587    0.0200 C   0  0  2  0  0  0
   -0.5339   -0.8082    0.8913 H   0  0  0  0  0  0
    1.4794   -0.4014    0.1855 C   0  0  1  0  0  0
    1.9186    0.1256   -0.6625 H   0  0  0  0  0  0
    1.9085    0.3267    1.4708 C   0  0  0  0  0  0
    3.2792    0.7023    1.3439 O   0  0  0  0  0  0
    3.9528    1.2475    2.4898 C   0  0  0  0  0  0
    5.3465    1.7234    2.0363 C   0  0  0  0  0  0
    5.9146    1.2409    0.8320 C   0  0  0  0  0  0
    7.1993    1.6508    0.4267 C   0  0  0  0  0  0
    7.9400    2.5428    1.2232 C   0  0  0  0  0  0
    7.3956    3.0202    2.4290 C   0  0  0  0  0  0
    6.1117    2.6089    2.8347 C   0  0  0  0  0  0
    3.1083    2.4333    3.0221 C   0  0  0  0  0  0
    3.1529    3.6852    2.3609 C   0  0  0  0  0  0
    2.3583    4.7636    2.7944 C   0  0  0  0  0  0
    1.4872    4.6027    3.8864 C   0  0  0  0  0  0
    1.4040    3.3576    4.5345 C   0  0  0  0  0  0
    2.1998    2.2807    4.0999 C   0  0  0  0  0  0
    4.2297    0.1455    3.5371 C   0  0  0  0  0  0
    4.2148   -1.2200    3.1629 C   0  0  0  0  0  0
    4.5096   -2.2308    4.0976 C   0  0  0  0  0  0
    4.8468   -1.8918    5.4201 C   0  0  0  0  0  0
    4.8997   -0.5393    5.8015 C   0  0  0  0  0  0
    4.6038    0.4695    4.8651 C   0  0  0  0  0  0
    1.9653   -1.7913    0.1922 N   0  0  0  0  0  0
   -2.7592    0.7883    0.4397 O   0  0  0  0  0  0
   -2.8370    1.9091    1.3079 C   0  0  0  0  0  0
   -3.7811    1.6475    2.4637 C   0  0  0  0  0  0
   -3.5580    0.5455    3.3154 C   0  0  0  0  0  0
   -4.4248    0.3010    4.3983 C   0  0  0  0  0  0
   -5.5157    1.1597    4.6353 C   0  0  0  0  0  0
   -5.7384    2.2639    3.7898 C   0  0  0  0  0  0
   -4.8714    2.5092    2.7069 C   0  0  0  0  0  0
   -0.1256    0.7239   -4.2727 C   0  0  0  0  0  0
   -1.4721   -2.4244   -3.5633 H   0  0  0  0  0  0
   -0.0974   -2.0640   -4.6238 H   0  0  0  0  0  0
   -1.7121   -1.4461   -5.0205 H   0  0  0  0  0  0
    1.3082    1.2281    1.5921 H   0  0  0  0  0  0
    1.7286   -0.2947    2.3488 H   0  0  0  0  0  0
    5.3775    0.5455    0.2043 H   0  0  0  0  0  0
    7.6179    1.2766   -0.4959 H   0  0  0  0  0  0
    8.9258    2.8555    0.9121 H   0  0  0  0  0  0
    7.9637    3.7010    3.0453 H   0  0  0  0  0  0
    5.7158    2.9853    3.7659 H   0  0  0  0  0  0
    3.7973    3.8283    1.5061 H   0  0  0  0  0  0
    2.4119    5.7132    2.2828 H   0  0  0  0  0  0
    0.8747    5.4284    4.2172 H   0  0  0  0  0  0
    0.7213    3.2243    5.3607 H   0  0  0  0  0  0
    2.0878    1.3299    4.5983 H   0  0  0  0  0  0
    3.9830   -1.5096    2.1495 H   0  0  0  0  0  0
    4.4843   -3.2675    3.7956 H   0  0  0  0  0  0
    5.0756   -2.6665    6.1371 H   0  0  0  0  0  0
    5.1728   -0.2740    6.8122 H   0  0  0  0  0  0
    4.6630    1.5004    5.1798 H   0  0  0  0  0  0
    1.5563   -2.3057    0.9708 H   0  0  0  0  0  0
   -1.8547    2.1386    1.7239 H   0  0  0  0  0  0
   -3.1645    2.7872    0.7494 H   0  0  0  0  0  0
   -2.7213   -0.1146    3.1383 H   0  0  0  0  0  0
   -4.2523   -0.5450    5.0472 H   0  0  0  0  0  0
   -6.1803    0.9723    5.4658 H   0  0  0  0  0  0
   -6.5739    2.9234    3.9720 H   0  0  0  0  0  0
   -5.0477    3.3594    2.0644 H   0  0  0  0  0  0
    0.0679    1.6071   -3.6629 H   0  0  0  0  0  0
   -0.8158    0.9919   -5.0733 H   0  0  0  0  0  0
    0.8136    0.3858   -4.7116 H   0  0  0  0  0  0
    1.6792   -2.2690   -0.6611 H   0  0  0  0  0  0
  1  2  1  0  0  0
  1 47  1  0  0  0
  1 48  1  0  0  0
  1 49  1  0  0  0
  2  8  1  0  0  0
  2  3  1  0  0  0
  2 46  1  0  0  0
  3  4  1  0  0  0
  4  5  1  0  0  0
  4 12  1  0  0  0
  4  6  1  0  0  0
  6  7  1  0  0  0
  6  8  1  0  0  0
  6  9  1  0  0  0
  9 10  1  0  0  0
  9 11  1  0  0  0
  9 38  1  0  0  0
 11 12  1  0  0  0
 12 13  1  0  0  0
 12 14  1  0  0  0
 14 15  1  0  0  0
 14 16  1  0  0  0
 14 37  1  0  0  0
 16 17  1  0  0  0
 16 50  1  0  0  0
 16 51  1  0  0  0
 17 18  1  0  0  0
 18 19  1  0  0  0
 18 25  1  0  0  0
 18 31  1  0  0  0
 19 24  2  0  0  0
 19 20  1  0  0  0
 20 21  2  0  0  0
 20 52  1  0  0  0
 21 22  1  0  0  0
 21 53  1  0  0  0
 22 23  2  0  0  0
 22 54  1  0  0  0
 23 24  1  0  0  0
 23 55  1  0  0  0
 24 56  1  0  0  0
 25 30  2  0  0  0
 25 26  1  0  0  0
 26 27  2  0  0  0
 26 57  1  0  0  0
 27 28  1  0  0  0
 27 58  1  0  0  0
 28 29  2  0  0  0
 28 59  1  0  0  0
 29 30  1  0  0  0
 29 60  1  0  0  0
 30 61  1  0  0  0
 31 36  2  0  0  0
 31 32  1  0  0  0
 32 33  2  0  0  0
 32 62  1  0  0  0
 33 34  1  0  0  0
 33 63  1  0  0  0
 34 35  2  0  0  0
 34 64  1  0  0  0
 35 36  1  0  0  0
 35 65  1  0  0  0
 36 66  1  0  0  0
 37 67  1  0  0  0
 37 78  1  0  0  0
 38 39  1  0  0  0
 39 40  1  0  0  0
 39 68  1  0  0  0
 39 69  1  0  0  0
 40 45  2  0  0  0
 40 41  1  0  0  0
 41 42  2  0  0  0
 41 70  1  0  0  0
 42 43  1  0  0  0
 42 71  1  0  0  0
 43 44  2  0  0  0
 43 72  1  0  0  0
 44 45  1  0  0  0
 44 73  1  0  0  0
 45 74  1  0  0  0
 46 75  1  0  0  0
 46 76  1  0  0  0
 46 77  1  0  0  0
M  END
> <s_m_entry_id>
46

> <s_m_entry_name>
biosynth_p1.0.sdf.39

> <s_m_Source_Path>
/Users/Sebastito/Downloads

> <s_m_Source_File>
biosynth_p1.0.sdf.gz

> <i_m_Source_File_Index>
39

> <chiral flag>
1

> <version>
0

> <i_m_ct_enhanced_stereo_status>
0

> <s_m_source_file>
ligprep_vs.maegz

> <i_m_source_file_index>
39

> <i_lp_mmshare_version>
37011

> <r_epik_Ionization_Penalty>
1.43756

> <r_epik_Ionization_Penalty_Charging>
0

> <r_epik_Ionization_Penalty_Neutral>
1.43756

> <r_epik_State_Penalty>
1.52268

> <r_epik_Charging_Adjusted_Penalty>
1.52268

> <i_epik_Tot_Q>
0

> <i_epik_Tot_abs_Q>
0

> <s_epik_Chemistry_Notes>
This compound contains an acetal/aminal-like group ( X-CH(R)-Y where X, Y are N, S, or O) that may be acid/base labile, releasing an aldehyde.

> <i_f3d_flags>
0

> <s_lp_Force_Field>
OPLS_2005

> <r_lp_Energy>
63.0113

> <b_lp_Chiralities_Consistent>
1

> <s_lp_Variant>
ZINC98231219-2

$$$$
ZINC98231238
                    3D
 Structure written by MMmdl.
 66 70  0  0  1  0            999 V2000
   -1.4440    5.5687   -1.2331 C   0  0  0  0  0  0
   -0.3036    4.9324   -0.7089 C   0  0  0  0  0  0
   -0.3842    3.6043   -0.2471 C   0  0  0  0  0  0
   -1.6089    2.8941   -0.3089 C   0  0  0  0  0  0
   -2.7477    3.5451   -0.8381 C   0  0  0  0  0  0
   -2.6661    4.8744   -1.2965 C   0  0  0  0  0  0
   -1.7265    1.4836    0.1617 C   0  0  0  0  0  0
   -2.7704    0.8315    0.0994 O   0  0  0  0  0  0
   -0.5700    1.0000    0.6566 O   0  0  0  0  0  0
   -0.4757   -0.3430    1.1086 C   0  0  0  0  0  0
    0.9472   -0.8444    0.8439 C   0  0  2  0  0  0
    1.6663   -0.1548    1.2904 H   0  0  0  0  0  0
    1.2497   -1.0553   -0.6515 C   0  0  2  0  0  0
    0.4043   -0.7864   -1.2866 H   0  0  0  0  0  0
    1.5051   -2.5523   -0.7574 C   0  0  2  0  0  0
    0.5536   -3.0498   -0.9481 H   0  0  0  0  0  0
    1.9494   -2.9082    0.6607 C   0  0  2  0  0  0
    1.7868   -3.9636    0.8846 H   0  0  0  0  0  0
    1.1335   -2.1139    1.4653 O   0  0  0  0  0  0
    3.3056   -2.5932    0.8076 O   0  0  0  0  0  0
    3.8713   -2.9039    2.0046 C   0  0  0  0  0  0
    3.2713   -3.4288    2.9459 O   0  0  0  0  0  0
    5.3169   -2.5434    2.0606 C   0  0  0  0  0  0
    6.0169   -2.6683    3.2831 C   0  0  0  0  0  0
    7.3830   -2.3354    3.3644 C   0  0  0  0  0  0
    8.0664   -1.8761    2.2233 C   0  0  0  0  0  0
    7.3828   -1.7533    0.9997 C   0  0  0  0  0  0
    6.0171   -2.0861    0.9174 C   0  0  0  0  0  0
    2.4686   -2.8715   -1.7548 O   0  0  0  0  0  0
    2.6974   -4.5145   -2.0845 S   0  0  0  0  0  0
    1.4201   -5.2139   -1.8712 O   0  0  0  0  0  0
    3.3860   -4.5969   -3.3815 O   0  0  0  0  0  0
    3.7996   -5.1989   -0.9609 N   0  0  0  0  0  0
    5.1633   -4.9528   -0.9023 C   0  0  0  0  0  0
    5.6440   -5.6989    0.1502 C   0  0  0  0  0  0
    4.5981   -6.4049    0.7436 N   0  0  0  0  0  0
    3.5346   -6.0626    0.0271 C   0  0  0  0  0  0
    2.4184   -0.3176   -0.9958 O   0  0  0  0  0  0
    2.3284    0.8699   -1.6323 C   0  0  0  0  0  0
    1.2665    1.3672   -2.0109 O   0  0  0  0  0  0
    3.6546    1.5216   -1.8269 C   0  0  0  0  0  0
    3.7284    2.7564   -2.5124 C   0  0  0  0  0  0
    4.9689    3.3951   -2.7059 C   0  0  0  0  0  0
    6.1497    2.8077   -2.2150 C   0  0  0  0  0  0
    6.0890    1.5804   -1.5296 C   0  0  0  0  0  0
    4.8495    0.9410   -1.3360 C   0  0  0  0  0  0
   -1.3817    6.5876   -1.5858 H   0  0  0  0  0  0
    0.6358    5.4635   -0.6607 H   0  0  0  0  0  0
    0.5107    3.1456    0.1474 H   0  0  0  0  0  0
   -3.6968    3.0320   -0.8986 H   0  0  0  0  0  0
   -3.5429    5.3609   -1.6979 H   0  0  0  0  0  0
   -0.6953   -0.3689    2.1762 H   0  0  0  0  0  0
   -1.1930   -0.9969    0.6105 H   0  0  0  0  0  0
    5.5132   -3.0183    4.1727 H   0  0  0  0  0  0
    7.9068   -2.4329    4.3041 H   0  0  0  0  0  0
    9.1142   -1.6212    2.2860 H   0  0  0  0  0  0
    7.9065   -1.4060    0.1211 H   0  0  0  0  0  0
    5.5261   -1.9946   -0.0397 H   0  0  0  0  0  0
    5.6603   -4.2837   -1.5893 H   0  0  0  0  0  0
    6.6535   -5.7785    0.5262 H   0  0  0  0  0  0
    2.5444   -6.4417    0.2331 H   0  0  0  0  0  0
    2.8349    3.2269   -2.8969 H   0  0  0  0  0  0
    5.0138    4.3375   -3.2315 H   0  0  0  0  0  0
    7.1003    3.2984   -2.3630 H   0  0  0  0  0  0
    6.9936    1.1283   -1.1501 H   0  0  0  0  0  0
    4.8354    0.0034   -0.8028 H   0  0  0  0  0  0
  1  6  2  0  0  0
  1  2  1  0  0  0
  1 47  1  0  0  0
  2  3  2  0  0  0
  2 48  1  0  0  0
  3  4  1  0  0  0
  3 49  1  0  0  0
  4  5  2  0  0  0
  4  7  1  0  0  0
  5  6  1  0  0  0
  5 50  1  0  0  0
  6 51  1  0  0  0
  7  8  2  0  0  0
  7  9  1  0  0  0
  9 10  1  0  0  0
 10 11  1  0  0  0
 10 52  1  0  0  0
 10 53  1  0  0  0
 11 12  1  0  0  0
 11 19  1  0  0  0
 11 13  1  0  0  0
 13 14  1  0  0  0
 13 15  1  0  0  0
 13 38  1  0  0  0
 15 16  1  0  0  0
 15 17  1  0  0  0
 15 29  1  0  0  0
 17 18  1  0  0  0
 17 19  1  0  0  0
 17 20  1  0  0  0
 20 21  1  0  0  0
 21 22  2  0  0  0
 21 23  1  0  0  0
 23 28  2  0  0  0
 23 24  1  0  0  0
 24 25  2  0  0  0
 24 54  1  0  0  0
 25 26  1  0  0  0
 25 55  1  0  0  0
 26 27  2  0  0  0
 26 56  1  0  0  0
 27 28  1  0  0  0
 27 57  1  0  0  0
 28 58  1  0  0  0
 29 30  1  0  0  0
 30 31  2  0  0  0
 30 32  2  0  0  0
 30 33  1  0  0  0
 33 37  1  0  0  0
 33 34  1  0  0  0
 34 35  2  0  0  0
 34 59  1  0  0  0
 35 36  1  0  0  0
 35 60  1  0  0  0
 36 37  2  0  0  0
 37 61  1  0  0  0
 38 39  1  0  0  0
 39 40  2  0  0  0
 39 41  1  0  0  0
 41 46  2  0  0  0
 41 42  1  0  0  0
 42 43  2  0  0  0
 42 62  1  0  0  0
 43 44  1  0  0  0
 43 63  1  0  0  0
 44 45  2  0  0  0
 44 64  1  0  0  0
 45 46  1  0  0  0
 45 65  1  0  0  0
 46 66  1  0  0  0
M  END
> <s_m_entry_id>
47

> <s_m_entry_name>
biosynth_p1.0.sdf.40

> <s_m_Source_Path>
/Users/Sebastito/Downloads

> <s_m_Source_File>
biosynth_p1.0.sdf.gz

> <i_m_Source_File_Index>
40

> <chiral flag>
1

> <version>
0

> <i_m_ct_enhanced_stereo_status>
0

> <s_m_source_file>
ligprep_vs.maegz

> <i_m_source_file_index>
40

> <i_lp_mmshare_version>
37011

> <r_epik_Ionization_Penalty>
0.00044858

> <r_epik_Ionization_Penalty_Charging>
0.00044858

> <r_epik_Ionization_Penalty_Neutral>
1.31558e-16

> <r_epik_State_Penalty>
0.000277055

> <r_epik_Charging_Adjusted_Penalty>
0.000725635

> <i_epik_Tot_Q>
0

> <i_epik_Tot_abs_Q>
0

> <s_epik_Chemistry_Notes>
This compound has an ester and may undergo hydrolysis at high or low pH. This compound contains an acetal/aminal-like group ( X-CH(R)-Y where X, Y are N, S, or O) that may be acid/base labile, releasing an aldehyde.

> <i_f3d_flags>
0

> <s_lp_Force_Field>
OPLS_2005

> <r_lp_Energy>
30.0144

> <b_lp_Chiralities_Consistent>
1

> <s_lp_Variant>
ZINC98231238-1

$$$$
ZINC00102611
                    3D
 Structure written by MMmdl.
 16 16  0  0  1  0            999 V2000
   -2.7895    0.2390   -0.0647 C   0  0  0  0  0  0
   -2.2220   -1.0213   -0.3418 C   0  0  0  0  0  0
   -0.8232   -1.1864   -0.2545 C   0  0  0  0  0  0
   -0.0162   -0.0819    0.1098 C   0  0  0  0  0  0
   -0.6079    1.1086    0.3665 N   0  3  0  0  0  0
   -1.9420    1.3058    0.2936 C   0  0  0  0  0  0
    1.4994   -0.1851    0.2237 C   0  0  0  0  0  0
    2.1400    1.0232    0.5865 O   0  0  0  0  0  0
   -0.2712   -2.4064   -0.5222 O   0  5  0  0  0  0
   -3.8579    0.3832   -0.1266 H   0  0  0  0  0  0
   -2.8549   -1.8521   -0.6184 H   0  0  0  0  0  0
   -2.2873    2.3030    0.5229 H   0  0  0  0  0  0
    1.9055   -0.5182   -0.7318 H   0  0  0  0  0  0
    1.7499   -0.9465    0.9630 H   0  0  0  0  0  0
    3.0701    0.8624    0.6371 H   0  0  0  0  0  0
   -0.0104    1.8930    0.6279 H   0  0  0  0  0  0
  1  6  1  0  0  0
  1 10  1  0  0  0
  1  2  2  0  0  0
  2  3  1  0  0  0
  2 11  1  0  0  0
  3  9  1  0  0  0
  3  4  2  0  0  0
  4  7  1  0  0  0
  4  5  1  0  0  0
  5 16  1  0  0  0
  5  6  2  0  0  0
  6 12  1  0  0  0
  7  8  1  0  0  0
  7 13  1  0  0  0
  7 14  1  0  0  0
  8 15  1  0  0  0
M  CHG  2   5   1   9  -1
M  END
> <s_m_entry_id>
48

> <s_m_entry_name>
biosynth_p1.0.sdf.41

> <s_m_Source_Path>
/Users/Sebastito/Downloads

> <s_m_Source_File>
biosynth_p1.0.sdf.gz

> <i_m_Source_File_Index>
41

> <chiral flag>
0

> <version>
0

> <i_m_ct_enhanced_stereo_status>
0

> <s_m_source_file>
ligprep_vs.maegz

> <i_m_source_file_index>
41

> <i_lp_mmshare_version>
37011

> <r_lp_tautomer_probability>
0.56342

> <r_epik_Ionization_Penalty>
0.014595

> <r_epik_Ionization_Penalty_Charging>
0.0143988

> <r_epik_Ionization_Penalty_Neutral>
0.000196158

> <r_epik_State_Penalty>
0.282393

> <r_epik_Charging_Adjusted_Penalty>
0.296792

> <i_epik_Tot_Q>
0

> <i_epik_Tot_abs_Q>
2

> <i_f3d_flags>
0

> <s_lp_Force_Field>
OPLS_2005

> <r_lp_Energy>
3.22949

> <b_lp_Chiralities_Consistent>
1

> <s_lp_Variant>
ZINC00102611-1

$$$$
ZINC00102611
                    3D
 Structure written by MMmdl.
 16 16  0  0  1  0            999 V2000
   -2.7523    0.0732    0.0190 C   0  0  0  0  0  0
   -2.1389   -1.1917   -0.0535 C   0  0  0  0  0  0
   -0.7316   -1.2670   -0.0565 C   0  0  0  0  0  0
    0.0071   -0.0616    0.0135 C   0  0  0  0  0  0
   -0.5797    1.1551    0.0838 N   0  0  0  0  0  0
   -1.9284    1.2138    0.0861 C   0  0  0  0  0  0
    1.5262   -0.0601    0.0226 C   0  0  0  0  0  0
    2.0602   -0.3154    1.3040 O   0  0  0  0  0  0
   -0.1130   -2.4833   -0.1235 O   0  0  0  0  0  0
   -3.8279    0.1671    0.0236 H   0  0  0  0  0  0
   -2.7404   -2.0874   -0.1051 H   0  0  0  0  0  0
   -2.3647    2.2000    0.1429 H   0  0  0  0  0  0
    1.9014   -0.8089   -0.6754 H   0  0  0  0  0  0
    1.9013    0.9033   -0.3257 H   0  0  0  0  0  0
    3.0029   -0.3057    1.2428 H   0  0  0  0  0  0
   -0.7191   -3.2078   -0.1516 H   0  0  0  0  0  0
  1  6  2  0  0  0
  1 10  1  0  0  0
  1  2  1  0  0  0
  2  3  2  0  0  0
  2 11  1  0  0  0
  3  9  1  0  0  0
  3  4  1  0  0  0
  4  7  1  0  0  0
  4  5  2  0  0  0
  5  6  1  0  0  0
  6 12  1  0  0  0
  7  8  1  0  0  0
  7 13  1  0  0  0
  7 14  1  0  0  0
  8 15  1  0  0  0
  9 16  1  0  0  0
M  END
> <s_m_entry_id>
48

> <s_m_entry_name>
biosynth_p1.0.sdf.41

> <s_m_Source_Path>
/Users/Sebastito/Downloads

> <s_m_Source_File>
biosynth_p1.0.sdf.gz

> <i_m_Source_File_Index>
41

> <chiral flag>
0

> <version>
0

> <i_m_ct_enhanced_stereo_status>
0

> <s_m_source_file>
ligprep_vs.maegz

> <i_m_source_file_index>
41

> <i_lp_mmshare_version>
37011

> <r_lp_tautomer_probability>
0.43658

> <r_epik_Ionization_Penalty>
0.0294414

> <r_epik_Ionization_Penalty_Charging>
0

> <r_epik_Ionization_Penalty_Neutral>
0.0294414

> <r_epik_State_Penalty>
0.595111

> <r_epik_Charging_Adjusted_Penalty>
0.595111

> <i_epik_Tot_Q>
0

> <i_epik_Tot_abs_Q>
0

> <i_f3d_flags>
0

> <s_lp_Force_Field>
OPLS_2005

> <r_lp_Energy>
4.69914

> <b_lp_Chiralities_Consistent>
1

> <s_lp_Variant>
ZINC00102611-2

$$$$
ZINC35567315
                    3D
 Structure written by MMmdl.
 23 23  0  0  1  0            999 V2000
   -1.9677   -1.2935    0.0012 C   0  0  0  0  0  0
   -0.5560   -1.1629    0.0058 O   0  0  0  0  0  0
    0.0045    0.0630    0.0070 C   0  0  0  0  0  0
   -0.6429    1.1117    0.0060 O   0  0  0  0  0  0
    1.4937    0.0179    0.0077 C   0  0  0  0  0  0
    2.2178   -1.1981    0.0001 C   0  0  0  0  0  0
    3.6280   -1.1599   -0.0030 C   0  0  0  0  0  0
    4.2620    0.0996    0.0073 C   0  0  0  0  0  0
    3.5871    1.2670    0.0141 N   0  0  0  0  0  0
    2.2373    1.2207    0.0150 C   0  0  0  0  0  0
    4.4406   -2.4394   -0.0149 C   0  0  0  0  0  0
    4.7021   -2.8871   -1.3930 N   0  3  0  0  0  0
   -2.2421   -2.3483   -0.0003 H   0  0  0  0  0  0
   -2.3981   -0.8286   -0.8867 H   0  0  0  0  0  0
   -2.4047   -0.8292    0.8862 H   0  0  0  0  0  0
    1.7143   -2.1539   -0.0060 H   0  0  0  0  0  0
    5.3397    0.1740    0.0057 H   0  0  0  0  0  0
    1.7431    2.1814    0.0208 H   0  0  0  0  0  0
    5.3895   -2.2842    0.4998 H   0  0  0  0  0  0
    3.9071   -3.2235    0.5232 H   0  0  0  0  0  0
    5.2392   -3.7423   -1.3734 H   0  0  0  0  0  0
    5.2221   -2.1759   -1.8870 H   0  0  0  0  0  0
    3.8252   -3.0519   -1.8663 H   0  0  0  0  0  0
  1  2  1  0  0  0
  1 13  1  0  0  0
  1 14  1  0  0  0
  1 15  1  0  0  0
  2  3  1  0  0  0
  3  4  2  0  0  0
  3  5  1  0  0  0
  5 10  2  0  0  0
  5  6  1  0  0  0
  6  7  2  0  0  0
  6 16  1  0  0  0
  7  8  1  0  0  0
  7 11  1  0  0  0
  8  9  2  0  0  0
  8 17  1  0  0  0
  9 10  1  0  0  0
 10 18  1  0  0  0
 11 12  1  0  0  0
 11 19  1  0  0  0
 11 20  1  0  0  0
 12 21  1  0  0  0
 12 22  1  0  0  0
 12 23  1  0  0  0
M  CHG  1  12   1
M  END
> <s_m_entry_id>
49

> <s_m_entry_name>
biosynth_p1.0.sdf.42

> <s_m_Source_Path>
/Users/Sebastito/Downloads

> <s_m_Source_File>
biosynth_p1.0.sdf.gz

> <i_m_Source_File_Index>
42

> <chiral flag>
0

> <version>
0

> <i_m_ct_enhanced_stereo_status>
0

> <s_m_source_file>
ligprep_vs.maegz

> <i_m_source_file_index>
42

> <i_lp_mmshare_version>
37011

> <r_epik_Ionization_Penalty>
0.0619807

> <r_epik_Ionization_Penalty_Charging>
0.0619033

> <r_epik_Ionization_Penalty_Neutral>
7.73837e-05

> <r_epik_State_Penalty>
0.0537623

> <r_epik_Charging_Adjusted_Penalty>
0.115666

> <i_epik_Tot_Q>
1

> <i_epik_Tot_abs_Q>
1

> <s_epik_Chemistry_Notes>
This compound has an ester and may undergo hydrolysis at high or low pH.

> <i_f3d_flags>
0

> <s_lp_Force_Field>
OPLS_2005

> <r_lp_Energy>
5.00688

> <b_lp_Chiralities_Consistent>
1

> <s_lp_Variant>
ZINC35567315-1

$$$$
ZINC35567315
                    3D
 Structure written by MMmdl.
 22 22  0  0  1  0            999 V2000
   -2.0073   -1.2252    0.0029 C   0  0  0  0  0  0
   -0.5938   -1.1192    0.0073 O   0  0  0  0  0  0
   -0.0119    0.0963   -0.0196 C   0  0  0  0  0  0
   -0.6418    1.1555   -0.0470 O   0  0  0  0  0  0
    1.4760    0.0264   -0.0141 C   0  0  0  0  0  0
    2.1795   -1.2013    0.0259 C   0  0  0  0  0  0
    3.5894   -1.1863    0.0281 C   0  0  0  0  0  0
    4.2454    0.0611   -0.0066 C   0  0  0  0  0  0
    3.5909    1.2401   -0.0459 N   0  0  0  0  0  0
    2.2407    1.2154   -0.0488 C   0  0  0  0  0  0
    4.3790   -2.4781    0.0738 C   0  0  0  0  0  0
    4.5711   -2.9614    1.4263 N   0  0  0  0  0  0
   -2.3002   -2.2748    0.0247 H   0  0  0  0  0  0
   -2.4278   -0.7733   -0.8963 H   0  0  0  0  0  0
   -2.4373   -0.7331    0.8762 H   0  0  0  0  0  0
    1.6615   -2.1489    0.0557 H   0  0  0  0  0  0
    5.3241    0.1157   -0.0018 H   0  0  0  0  0  0
    1.7629    2.1840   -0.0797 H   0  0  0  0  0  0
    3.8596   -3.2418   -0.5059 H   0  0  0  0  0  0
    5.3528   -2.3315   -0.3944 H   0  0  0  0  0  0
    4.1944   -3.8954    1.5043 H   0  0  0  0  0  0
    5.5601   -3.0448    1.6137 H   0  0  0  0  0  0
  1  2  1  0  0  0
  1 13  1  0  0  0
  1 14  1  0  0  0
  1 15  1  0  0  0
  2  3  1  0  0  0
  3  4  2  0  0  0
  3  5  1  0  0  0
  5 10  2  0  0  0
  5  6  1  0  0  0
  6  7  2  0  0  0
  6 16  1  0  0  0
  7  8  1  0  0  0
  7 11  1  0  0  0
  8  9  2  0  0  0
  8 17  1  0  0  0
  9 10  1  0  0  0
 10 18  1  0  0  0
 11 12  1  0  0  0
 11 19  1  0  0  0
 11 20  1  0  0  0
 12 21  1  0  0  0
 12 22  1  0  0  0
M  END
> <s_m_entry_id>
49

> <s_m_entry_name>
biosynth_p1.0.sdf.42

> <s_m_Source_Path>
/Users/Sebastito/Downloads

> <s_m_Source_File>
biosynth_p1.0.sdf.gz

> <i_m_Source_File_Index>
42

> <chiral flag>
0

> <version>
0

> <i_m_ct_enhanced_stereo_status>
0

> <s_m_source_file>
ligprep_vs.maegz

> <i_m_source_file_index>
42

> <i_lp_mmshare_version>
37011

> <r_epik_Ionization_Penalty>
1.36928

> <r_epik_Ionization_Penalty_Charging>
0

> <r_epik_Ionization_Penalty_Neutral>
1.36928

> <r_epik_State_Penalty>
1.4485

> <r_epik_Charging_Adjusted_Penalty>
1.4485

> <i_epik_Tot_Q>
0

> <i_epik_Tot_abs_Q>
0

> <s_epik_Chemistry_Notes>
This compound has an ester and may undergo hydrolysis at high or low pH.

> <i_f3d_flags>
0

> <s_lp_Force_Field>
OPLS_2005

> <r_lp_Energy>
5.73915

> <b_lp_Chiralities_Consistent>
1

> <s_lp_Variant>
ZINC35567315-2

$$$$
ZINC06645459
                    3D
 Structure written by MMmdl.
 17 17  0  0  1  0            999 V2000
   -0.7544   -2.5110    0.0022 C   0  0  0  0  0  0
   -0.9259   -1.0295    0.0006 C   0  0  0  0  0  0
   -0.0116   -0.0010    0.0115 C   0  0  0  0  0  0
   -0.7431    1.1589    0.0061 N   0  3  0  0  0  0
   -2.0503    0.8896   -0.0082 C   0  0  0  0  0  0
   -2.1640   -0.4403   -0.0109 N   0  0  0  0  0  0
   -3.0435   -0.9418   -0.0195 H   0  0  0  0  0  0
    1.4805   -0.0004    0.0327 C   0  0  0  0  0  0
    1.9969    0.0034    1.3449 O   0  0  0  0  0  0
    0.3032   -2.7752    0.0057 H   0  0  0  0  0  0
   -1.2166   -2.9443   -0.8850 H   0  0  0  0  0  0
   -1.2213   -2.9444    0.8871 H   0  0  0  0  0  0
   -2.8543    1.6037   -0.0149 H   0  0  0  0  0  0
    1.8515   -0.8794   -0.4947 H   0  0  0  0  0  0
    1.8535    0.8748   -0.5001 H   0  0  0  0  0  0
    2.9409   -0.0057    1.2976 H   0  0  0  0  0  0
   -0.3481    2.0909    0.0159 H   0  0  0  0  0  0
  1  2  1  0  0  0
  1 10  1  0  0  0
  1 11  1  0  0  0
  1 12  1  0  0  0
  2  6  1  0  0  0
  2  3  2  0  0  0
  3  4  1  0  0  0
  3  8  1  0  0  0
  4  5  2  0  0  0
  4 17  1  0  0  0
  5  6  1  0  0  0
  5 13  1  0  0  0
  6  7  1  0  0  0
  8  9  1  0  0  0
  8 14  1  0  0  0
  8 15  1  0  0  0
  9 16  1  0  0  0
M  CHG  1   4   1
M  END
> <s_m_entry_id>
50

> <s_m_entry_name>
biosynth_p1.0.sdf.43

> <s_m_Source_Path>
/Users/Sebastito/Downloads

> <s_m_Source_File>
biosynth_p1.0.sdf.gz

> <i_m_Source_File_Index>
43

> <chiral flag>
0

> <version>
0

> <i_m_ct_enhanced_stereo_status>
0

> <s_m_source_file>
ligprep_vs.maegz

> <i_m_source_file_index>
43

> <i_lp_mmshare_version>
37011

> <r_lp_tautomer_probability>
1

> <r_epik_Ionization_Penalty>
0.461906

> <r_epik_Ionization_Penalty_Charging>
0

> <r_epik_Ionization_Penalty_Neutral>
0.461906

> <r_epik_State_Penalty>
0.367002

> <r_epik_Charging_Adjusted_Penalty>
0.367002

> <i_epik_Tot_Q>
1

> <i_epik_Tot_abs_Q>
1

> <i_f3d_flags>
0

> <s_lp_Force_Field>
OPLS_2005

> <r_lp_Energy>
3.50607

> <b_lp_Chiralities_Consistent>
1

> <s_lp_Variant>
ZINC06645459-1

$$$$
ZINC06645459
                    3D
 Structure written by MMmdl.
 16 16  0  0  1  0            999 V2000
   -0.5591   -2.6109   -0.0710 C   0  0  0  0  0  0
   -0.8232   -1.1434   -0.0222 C   0  0  0  0  0  0
    0.0310   -0.0591    0.0047 C   0  0  0  0  0  0
   -0.7089    1.1262    0.0510 N   0  0  0  0  0  0
   -1.9726    0.7205    0.0536 C   0  0  0  0  0  0
   -2.0997   -0.6081    0.0116 N   0  0  0  0  0  0
   -2.9671   -1.1254    0.0071 H   0  0  0  0  0  0
    1.5300   -0.0378   -0.0093 C   0  0  0  0  0  0
    1.9541   -0.4496    1.2722 O   0  0  0  0  0  0
    0.5082   -2.8158   -0.1547 H   0  0  0  0  0  0
   -1.0571   -3.0657   -0.9274 H   0  0  0  0  0  0
   -0.9244   -3.0988    0.8326 H   0  0  0  0  0  0
   -2.8135    1.3973    0.0868 H   0  0  0  0  0  0
    1.9301   -0.7149   -0.7640 H   0  0  0  0  0  0
    1.9173    0.9598   -0.2189 H   0  0  0  0  0  0
    2.8985   -0.4320    1.2950 H   0  0  0  0  0  0
  1  2  1  0  0  0
  1 10  1  0  0  0
  1 11  1  0  0  0
  1 12  1  0  0  0
  2  6  1  0  0  0
  2  3  2  0  0  0
  3  4  1  0  0  0
  3  8  1  0  0  0
  4  5  2  0  0  0
  5  6  1  0  0  0
  5 13  1  0  0  0
  6  7  1  0  0  0
  8  9  1  0  0  0
  8 14  1  0  0  0
  8 15  1  0  0  0
  9 16  1  0  0  0
M  END
> <s_m_entry_id>
50

> <s_m_entry_name>
biosynth_p1.0.sdf.43

> <s_m_Source_Path>
/Users/Sebastito/Downloads

> <s_m_Source_File>
biosynth_p1.0.sdf.gz

> <i_m_Source_File_Index>
43

> <chiral flag>
0

> <version>
0

> <i_m_ct_enhanced_stereo_status>
0

> <s_m_source_file>
ligprep_vs.maegz

> <i_m_source_file_index>
43

> <i_lp_mmshare_version>
37011

> <r_lp_tautomer_probability>
0.5

> <r_epik_Ionization_Penalty>
0.533317

> <r_epik_Ionization_Penalty_Charging>
0.533287

> <r_epik_Ionization_Penalty_Neutral>
2.97195e-05

> <r_epik_State_Penalty>
0.78558

> <r_epik_Charging_Adjusted_Penalty>
1.31887

> <i_epik_Tot_Q>
0

> <i_epik_Tot_abs_Q>
0

> <i_f3d_flags>
0

> <s_lp_Force_Field>
OPLS_2005

> <r_lp_Energy>
2.6955

> <b_lp_Chiralities_Consistent>
1

> <s_lp_Variant>
ZINC06645459-2

$$$$
ZINC06645459
                    3D
 Structure written by MMmdl.
 16 16  0  0  1  0            999 V2000
   -0.6956   -2.5116   -0.0664 C   0  0  0  0  0  0
   -0.9188   -1.0319   -0.0255 C   0  0  0  0  0  0
    0.0109   -0.0125    0.0138 C   0  0  0  0  0  0
   -0.7291    1.1578    0.0455 N   0  0  0  0  0  0
   -2.0192    0.8137    0.0234 C   0  0  0  0  0  0
   -2.2107   -0.4990   -0.0201 N   0  0  0  0  0  0
   -0.3618    2.0978    0.0811 H   0  0  0  0  0  0
    1.5036   -0.0356    0.0274 C   0  0  0  0  0  0
    2.0179   -0.4255    1.2815 O   0  0  0  0  0  0
    0.3624   -2.7552   -0.1627 H   0  0  0  0  0  0
   -1.2155   -2.9644   -0.9110 H   0  0  0  0  0  0
   -1.0618   -2.9884    0.8428 H   0  0  0  0  0  0
   -2.8263    1.5311    0.0396 H   0  0  0  0  0  0
    1.9011    0.9485   -0.2224 H   0  0  0  0  0  0
    1.8715   -0.7259   -0.7320 H   0  0  0  0  0  0
    2.9615   -0.4268    1.2320 H   0  0  0  0  0  0
  1 10  1  0  0  0
  1 11  1  0  0  0
  1 12  1  0  0  0
  1  2  1  0  0  0
  2  3  2  0  0  0
  2  6  1  0  0  0
  3  8  1  0  0  0
  3  4  1  0  0  0
  4  7  1  0  0  0
  4  5  1  0  0  0
  5 13  1  0  0  0
  5  6  2  0  0  0
  8  9  1  0  0  0
  8 14  1  0  0  0
  8 15  1  0  0  0
  9 16  1  0  0  0
M  END
> <s_m_entry_id>
50

> <s_m_entry_name>
biosynth_p1.0.sdf.43

> <s_m_Source_Path>
/Users/Sebastito/Downloads

> <s_m_Source_File>
biosynth_p1.0.sdf.gz

> <i_m_Source_File_Index>
43

> <chiral flag>
0

> <version>
0

> <i_m_ct_enhanced_stereo_status>
0

> <s_m_source_file>
ligprep_vs.maegz

> <i_m_source_file_index>
43

> <i_lp_mmshare_version>
37011

> <r_lp_tautomer_probability>
0.5

> <r_epik_Ionization_Penalty>
0.880519

> <r_epik_Ionization_Penalty_Charging>
0.880489

> <r_epik_Ionization_Penalty_Neutral>
2.97541e-05

> <r_epik_State_Penalty>
0.96498

> <r_epik_Charging_Adjusted_Penalty>
1.84547

> <i_epik_Tot_Q>
0

> <i_epik_Tot_abs_Q>
0

> <i_f3d_flags>
0

> <s_lp_Force_Field>
OPLS_2005

> <r_lp_Energy>
1.70358

> <b_lp_Chiralities_Consistent>
1

> <s_lp_Variant>
ZINC06645459-3

$$$$
ZINC04705523
                    3D
 Structure written by MMmdl.
 22 23  0  0  1  0            999 V2000
   -0.0148    0.0544   -0.0000 C   0  0  0  0  0  0
    1.4757    0.0194   -0.0000 C   0  0  0  0  0  0
    2.4087    1.0275   -0.0000 C   0  0  0  0  0  0
    3.6891    0.4750   -0.0000 N   0  0  0  0  0  0
    3.5192   -0.8481   -0.0000 C   0  0  0  0  0  0
    2.2115   -1.1521    0.0000 N   0  0  0  0  0  0
    4.6084   -1.8266   -0.0000 C   0  0  0  0  0  0
    4.3268   -3.2124   -0.0000 C   0  0  0  0  0  0
    5.3742   -4.1542   -0.0000 C   0  0  0  0  0  0
    6.7131   -3.7207   -0.0000 C   0  0  0  0  0  0
    7.0039   -2.3436   -0.0000 C   0  0  0  0  0  0
    5.9571   -1.4011   -0.0000 C   0  0  0  0  0  0
   -0.3802    1.0815   -0.0000 H   0  0  0  0  0  0
   -0.4144   -0.4449    0.8829 H   0  0  0  0  0  0
   -0.4144   -0.4449   -0.8829 H   0  0  0  0  0  0
    2.2617    2.0976   -0.0000 H   0  0  0  0  0  0
    3.3067   -3.5669   -0.0000 H   0  0  0  0  0  0
    5.1491   -5.2105   -0.0000 H   0  0  0  0  0  0
    7.5159   -4.4433   -0.0000 H   0  0  0  0  0  0
    8.0309   -2.0087    0.0000 H   0  0  0  0  0  0
    6.2019   -0.3492    0.0000 H   0  0  0  0  0  0
    1.8289   -2.0866    0.0000 H   0  0  0  0  0  0
  1 13  1  0  0  0
  1 14  1  0  0  0
  1 15  1  0  0  0
  1  2  1  0  0  0
  2  3  2  0  0  0
  2  6  1  0  0  0
  3 16  1  0  0  0
  3  4  1  0  0  0
  4  5  2  0  0  0
  5  6  1  0  0  0
  5  7  1  0  0  0
  6 22  1  0  0  0
  7 12  2  0  0  0
  7  8  1  0  0  0
  8  9  2  0  0  0
  8 17  1  0  0  0
  9 10  1  0  0  0
  9 18  1  0  0  0
 10 11  2  0  0  0
 10 19  1  0  0  0
 11 12  1  0  0  0
 11 20  1  0  0  0
 12 21  1  0  0  0
M  END
> <s_m_entry_id>
51

> <s_m_entry_name>
biosynth_p1.0.sdf.44

> <s_m_Source_Path>
/Users/Sebastito/Downloads

> <s_m_Source_File>
biosynth_p1.0.sdf.gz

> <i_m_Source_File_Index>
44

> <chiral flag>
0

> <version>
0

> <i_m_ct_enhanced_stereo_status>
0

> <s_m_source_file>
ligprep_vs.maegz

> <i_m_source_file_index>
44

> <i_lp_mmshare_version>
37011

> <i_f3d_flags>
0

> <r_lp_tautomer_probability>
0.5

> <r_epik_Ionization_Penalty>
0.249045

> <r_epik_Ionization_Penalty_Charging>
0.249045

> <r_epik_Ionization_Penalty_Neutral>
7.21549e-08

> <r_epik_State_Penalty>
0.523302

> <r_epik_Charging_Adjusted_Penalty>
0.772347

> <i_epik_Tot_Q>
0

> <i_epik_Tot_abs_Q>
0

> <s_lp_Force_Field>
OPLS_2005

> <r_lp_Energy>
8.81817

> <b_lp_Chiralities_Consistent>
1

> <s_lp_Variant>
ZINC04705523-1

$$$$
ZINC04705523
                    3D
 Structure written by MMmdl.
 22 23  0  0  1  0            999 V2000
   -0.0178   -0.0245   -0.0000 C   0  0  0  0  0  0
    1.4764    0.0478   -0.0000 C   0  0  0  0  0  0
    2.2888    1.1552   -0.0000 C   0  0  0  0  0  0
    3.5784    0.6559   -0.0000 N   0  0  0  0  0  0
    3.5290   -0.6858   -0.0000 C   0  0  0  0  0  0
    2.2624   -1.1045    0.0000 N   0  0  0  0  0  0
    4.6967   -1.5687    0.0000 C   0  0  0  0  0  0
    6.0042   -1.0297    0.0000 C   0  0  0  0  0  0
    7.1273   -1.8800    0.0000 C   0  0  0  0  0  0
    6.9545   -3.2767    0.0000 C   0  0  0  0  0  0
    5.6573   -3.8226    0.0000 C   0  0  0  0  0  0
    4.5337   -2.9734    0.0000 C   0  0  0  0  0  0
   -0.4640    0.9703   -0.0000 H   0  0  0  0  0  0
   -0.3861   -0.5516    0.8802 H   0  0  0  0  0  0
   -0.3861   -0.5516   -0.8802 H   0  0  0  0  0  0
    2.0688    2.2125   -0.0000 H   0  0  0  0  0  0
    6.1595    0.0390    0.0000 H   0  0  0  0  0  0
    8.1222   -1.4597    0.0000 H   0  0  0  0  0  0
    7.8156   -3.9286    0.0000 H   0  0  0  0  0  0
    5.5226   -4.8942    0.0000 H   0  0  0  0  0  0
    3.5468   -3.4124    0.0000 H   0  0  0  0  0  0
    4.4225    1.2100   -0.0000 H   0  0  0  0  0  0
  1  2  1  0  0  0
  1 13  1  0  0  0
  1 14  1  0  0  0
  1 15  1  0  0  0
  2  6  1  0  0  0
  2  3  2  0  0  0
  3  4  1  0  0  0
  3 16  1  0  0  0
  4  5  1  0  0  0
  4 22  1  0  0  0
  5  6  2  0  0  0
  5  7  1  0  0  0
  7 12  2  0  0  0
  7  8  1  0  0  0
  8  9  2  0  0  0
  8 17  1  0  0  0
  9 10  1  0  0  0
  9 18  1  0  0  0
 10 11  2  0  0  0
 10 19  1  0  0  0
 11 12  1  0  0  0
 11 20  1  0  0  0
 12 21  1  0  0  0
M  END
> <s_m_entry_id>
51

> <s_m_entry_name>
biosynth_p1.0.sdf.44

> <s_m_Source_Path>
/Users/Sebastito/Downloads

> <s_m_Source_File>
biosynth_p1.0.sdf.gz

> <i_m_Source_File_Index>
44

> <chiral flag>
0

> <version>
0

> <i_m_ct_enhanced_stereo_status>
0

> <s_m_source_file>
ligprep_vs.maegz

> <i_m_source_file_index>
44

> <i_lp_mmshare_version>
37011

> <i_f3d_flags>
0

> <r_lp_tautomer_probability>
0.5

> <r_epik_Ionization_Penalty>
0.443656

> <r_epik_Ionization_Penalty_Charging>
0.443656

> <r_epik_Ionization_Penalty_Neutral>
1.58696e-07

> <r_epik_State_Penalty>
0.68295

> <r_epik_Charging_Adjusted_Penalty>
1.12661

> <i_epik_Tot_Q>
0

> <i_epik_Tot_abs_Q>
0

> <s_lp_Force_Field>
OPLS_2005

> <r_lp_Energy>
8.26202

> <b_lp_Chiralities_Consistent>
1

> <s_lp_Variant>
ZINC04705523-2

$$$$
ZINC04705523
                    3D
 Structure written by MMmdl.
 23 24  0  0  1  0            999 V2000
    0.0207    0.0015    0.0000 C   0  0  0  0  0  0
    1.5113   -0.0080    0.0000 C   0  0  0  0  0  0
    2.4314    1.0158    0.0000 C   0  0  0  0  0  0
    3.6760    0.4427    0.0000 N   0  0  0  0  0  0
    3.5451   -0.8853   -0.0000 C   0  0  0  0  0  0
    2.2405   -1.1711   -0.0000 N   0  3  0  0  0  0
    4.6479   -1.8661   -0.0000 C   0  0  0  0  0  0
    5.9973   -1.4414    0.0000 C   0  0  0  0  0  0
    7.0512   -2.3758    0.0000 C   0  0  0  0  0  0
    6.7707   -3.7540   -0.0000 C   0  0  0  0  0  0
    5.4345   -4.1935   -0.0000 C   0  0  0  0  0  0
    4.3836   -3.2558   -0.0000 C   0  0  0  0  0  0
   -0.3527    1.0259   -0.0000 H   0  0  0  0  0  0
   -0.3602   -0.5067    0.8862 H   0  0  0  0  0  0
   -0.3602   -0.5067   -0.8862 H   0  0  0  0  0  0
    2.2927    2.0874    0.0000 H   0  0  0  0  0  0
    6.2383   -0.3886    0.0000 H   0  0  0  0  0  0
    8.0759   -2.0339    0.0000 H   0  0  0  0  0  0
    7.5778   -4.4718    0.0000 H   0  0  0  0  0  0
    5.2147   -5.2511   -0.0000 H   0  0  0  0  0  0
    3.3661   -3.6180   -0.0000 H   0  0  0  0  0  0
    4.5566    0.9421    0.0000 H   0  0  0  0  0  0
    1.8527   -2.1060   -0.0000 H   0  0  0  0  0  0
  1  2  1  0  0  0
  1 13  1  0  0  0
  1 14  1  0  0  0
  1 15  1  0  0  0
  2  6  1  0  0  0
  2  3  2  0  0  0
  3  4  1  0  0  0
  3 16  1  0  0  0
  4  5  1  0  0  0
  4 22  1  0  0  0
  5  6  2  0  0  0
  5  7  1  0  0  0
  6 23  1  0  0  0
  7 12  2  0  0  0
  7  8  1  0  0  0
  8  9  2  0  0  0
  8 17  1  0  0  0
  9 10  1  0  0  0
  9 18  1  0  0  0
 10 11  2  0  0  0
 10 19  1  0  0  0
 11 12  1  0  0  0
 11 20  1  0  0  0
 12 21  1  0  0  0
M  CHG  1   6   1
M  END
> <s_m_entry_id>
51

> <s_m_entry_name>
biosynth_p1.0.sdf.44

> <s_m_Source_Path>
/Users/Sebastito/Downloads

> <s_m_Source_File>
biosynth_p1.0.sdf.gz

> <i_m_Source_File_Index>
44

> <chiral flag>
0

> <version>
0

> <i_m_ct_enhanced_stereo_status>
0

> <s_m_source_file>
ligprep_vs.maegz

> <i_m_source_file_index>
44

> <i_lp_mmshare_version>
37011

> <i_f3d_flags>
0

> <r_lp_tautomer_probability>
1

> <r_epik_Ionization_Penalty>
1.01311

> <r_epik_Ionization_Penalty_Charging>
0

> <r_epik_Ionization_Penalty_Neutral>
1.01311

> <r_epik_State_Penalty>
0.774079

> <r_epik_Charging_Adjusted_Penalty>
0.774079

> <i_epik_Tot_Q>
1

> <i_epik_Tot_abs_Q>
1

> <s_lp_Force_Field>
OPLS_2005

> <r_lp_Energy>
10.5611

> <b_lp_Chiralities_Consistent>
1

> <s_lp_Variant>
ZINC04705523-3

$$$$
ZINC00001307
                    3D
 Structure written by MMmdl.
 17 17  0  0  1  0            999 V2000
    0.0090    0.0238    0.1276 C   0  0  0  0  0  0
    1.5011   -0.0685    0.0894 C   0  0  0  0  0  0
    3.5822    0.4758    0.0940 C   0  0  0  0  0  0
    3.5290   -0.8950   -0.0198 C   0  0  0  0  0  0
    2.1698   -1.2358   -0.0230 N   0  0  0  0  0  0
    1.5916   -2.5687   -0.1256 C   0  0  0  0  0  0
    4.6415   -1.7988   -0.1160 N   0  3  0  0  0  0
    5.7676   -1.3139   -0.1018 O   0  0  0  0  0  0
    4.4325   -3.0030   -0.2060 O   0  5  0  0  0  0
   -0.3061    1.0637    0.2192 H   0  0  0  0  0  0
   -0.3814   -0.5297    0.9819 H   0  0  0  0  0  0
   -0.4184   -0.3851   -0.7882 H   0  0  0  0  0  0
    4.4438    1.1261    0.1323 H   0  0  0  0  0  0
    1.9299   -3.1808    0.7106 H   0  0  0  0  0  0
    1.9045   -3.0328   -1.0611 H   0  0  0  0  0  0
    0.5032   -2.5369   -0.1077 H   0  0  0  0  0  0
    2.2957    0.9929    0.1630 N   0  0  0  0  0  0
  1  2  1  0  0  0
  1 10  1  0  0  0
  1 11  1  0  0  0
  1 12  1  0  0  0
  2  5  1  0  0  0
  2 17  2  0  0  0
  3  4  2  0  0  0
  3 13  1  0  0  0
  3 17  1  0  0  0
  4  5  1  0  0  0
  4  7  1  0  0  0
  5  6  1  0  0  0
  6 14  1  0  0  0
  6 15  1  0  0  0
  6 16  1  0  0  0
  7  8  2  0  0  0
  7  9  1  0  0  0
M  CHG  2   7   1   9  -1
M  END
> <s_m_entry_id>
52

> <s_m_entry_name>
biosynth_p1.0.sdf.45

> <s_m_Source_Path>
/Users/Sebastito/Downloads

> <s_m_Source_File>
biosynth_p1.0.sdf.gz

> <i_m_Source_File_Index>
45

> <chiral flag>
0

> <version>
0

> <i_m_ct_enhanced_stereo_status>
0

> <s_m_source_file>
ligprep_vs.maegz

> <i_m_source_file_index>
45

> <i_lp_mmshare_version>
37011

> <i_f3d_flags>
0

> <r_lp_tautomer_probability>
1

> <r_epik_Ionization_Penalty>
1.64313e-05

> <r_epik_Ionization_Penalty_Charging>
1.64313e-05

> <r_epik_Ionization_Penalty_Neutral>
1.87865e-13

> <r_epik_State_Penalty>
-0

> <r_epik_Charging_Adjusted_Penalty>
1.64313e-05

> <i_epik_Tot_Q>
0

> <i_epik_Tot_abs_Q>
2

> <s_lp_Force_Field>
OPLS_2005

> <r_lp_Energy>
4.63379

> <b_lp_Chiralities_Consistent>
1

> <s_lp_Variant>
ZINC00001307-1

$$$$
ZINC02382643
                    3D
 Structure written by MMmdl.
 14 14  0  0  1  0            999 V2000
   -0.0022    0.0088   -0.0000 C   0  0  0  0  0  0
    1.4496   -0.0076   -0.0000 N   0  0  0  0  0  0
    2.2534    1.0699   -0.0000 C   0  0  0  0  0  0
    3.5782   -0.5872   -0.0000 C   0  0  0  0  0  0
    2.3044   -1.1120   -0.0000 C   0  0  0  0  0  0
    1.8012   -2.4836    0.0000 C   0  0  0  0  0  0
    2.5365   -3.4684    0.0000 O   0  0  0  0  0  0
    5.3820   -1.6501   -0.0000 I   0  0  0  0  0  0
   -0.3693    1.0357    0.0000 H   0  0  0  0  0  0
   -0.3777   -0.4982    0.8891 H   0  0  0  0  0  0
   -0.3777   -0.4982   -0.8891 H   0  0  0  0  0  0
    1.8743    2.0815   -0.0000 H   0  0  0  0  0  0
    0.7156   -2.5788    0.0000 H   0  0  0  0  0  0
    3.5537    0.8018   -0.0000 N   0  0  0  0  0  0
  1  2  1  0  0  0
  1  9  1  0  0  0
  1 10  1  0  0  0
  1 11  1  0  0  0
  2  5  1  0  0  0
  2  3  1  0  0  0
  3 12  1  0  0  0
  3 14  2  0  0  0
  4  5  2  0  0  0
  4  8  1  0  0  0
  4 14  1  0  0  0
  5  6  1  0  0  0
  6  7  2  0  0  0
  6 13  1  0  0  0
M  END
> <s_m_entry_id>
53

> <s_m_entry_name>
biosynth_p1.0.sdf.46

> <s_m_Source_Path>
/Users/Sebastito/Downloads

> <s_m_Source_File>
biosynth_p1.0.sdf.gz

> <i_m_Source_File_Index>
46

> <chiral flag>
0

> <version>
0

> <i_m_ct_enhanced_stereo_status>
0

> <s_m_source_file>
ligprep_vs.maegz

> <i_m_source_file_index>
46

> <i_lp_mmshare_version>
37011

> <i_f3d_flags>
0

> <r_lp_tautomer_probability>
1

> <r_epik_Ionization_Penalty>
1.41149e-06

> <r_epik_Ionization_Penalty_Charging>
1.41149e-06

> <r_epik_Ionization_Penalty_Neutral>
0

> <r_epik_State_Penalty>
-0

> <r_epik_Charging_Adjusted_Penalty>
1.41149e-06

> <i_epik_Tot_Q>
0

> <i_epik_Tot_abs_Q>
0

> <s_lp_Force_Field>
OPLS_2005

> <r_lp_Energy>
4.61137

> <b_lp_Chiralities_Consistent>
1

> <s_lp_Variant>
ZINC02382643-1

$$$$
ZINC02382641
                    3D
 Structure written by MMmdl.
 14 14  0  0  1  0            999 V2000
   -0.0052    0.0088   -0.0000 C   0  0  0  0  0  0
    1.4466   -0.0043   -0.0000 N   0  0  0  0  0  0
    2.2493    1.0747   -0.0000 C   0  0  0  0  0  0
    3.5746   -0.5790   -0.0000 C   0  0  0  0  0  0
    2.3032   -1.1074   -0.0000 C   0  0  0  0  0  0
    1.8059   -2.4808    0.0000 C   0  0  0  0  0  0
    2.5465   -3.4618    0.0000 O   0  0  0  0  0  0
    5.2043   -1.5653   -0.0000 Br  0  0  0  0  0  0
   -0.3743    1.0348    0.0000 H   0  0  0  0  0  0
   -0.3792   -0.4991    0.8892 H   0  0  0  0  0  0
   -0.3792   -0.4991   -0.8892 H   0  0  0  0  0  0
    1.8689    2.0858   -0.0000 H   0  0  0  0  0  0
    0.7208   -2.5811    0.0000 H   0  0  0  0  0  0
    3.5506    0.8097   -0.0000 N   0  0  0  0  0  0
  1  2  1  0  0  0
  1  9  1  0  0  0
  1 10  1  0  0  0
  1 11  1  0  0  0
  2  5  1  0  0  0
  2  3  1  0  0  0
  3 12  1  0  0  0
  3 14  2  0  0  0
  4  5  2  0  0  0
  4  8  1  0  0  0
  4 14  1  0  0  0
  5  6  1  0  0  0
  6  7  2  0  0  0
  6 13  1  0  0  0
M  END
> <s_m_entry_id>
54

> <s_m_entry_name>
biosynth_p1.0.sdf.47

> <s_m_Source_Path>
/Users/Sebastito/Downloads

> <s_m_Source_File>
biosynth_p1.0.sdf.gz

> <i_m_Source_File_Index>
47

> <chiral flag>
0

> <version>
0

> <i_m_ct_enhanced_stereo_status>
0

> <s_m_source_file>
ligprep_vs.maegz

> <i_m_source_file_index>
47

> <i_lp_mmshare_version>
37011

> <i_f3d_flags>
0

> <r_lp_tautomer_probability>
1

> <r_epik_Ionization_Penalty>
9.15541e-07

> <r_epik_Ionization_Penalty_Charging>
9.15541e-07

> <r_epik_Ionization_Penalty_Neutral>
0

> <r_epik_State_Penalty>
-0

> <r_epik_Charging_Adjusted_Penalty>
9.15541e-07

> <i_epik_Tot_Q>
0

> <i_epik_Tot_abs_Q>
0

> <s_lp_Force_Field>
OPLS_2005

> <r_lp_Energy>
4.62109

> <b_lp_Chiralities_Consistent>
1

> <s_lp_Variant>
ZINC02382641-1

$$$$
ZINC54962089
                    3D
 Structure written by MMmdl.
 16 15  0  0  1  0            999 V2000
   -0.6859    1.0745    0.1746 C   0  0  0  0  0  0
    0.5375    0.9602    0.9563 N   0  5  0  0  0  0
    1.7093    0.5944    0.3865 C   0  0  0  0  0  0
    2.0765   -0.7435    0.2637 C   0  0  0  0  0  0
    3.3062   -1.2574   -0.2792 N   0  3  0  0  0  0
    3.2580   -2.3377   -0.8558 O   0  0  0  0  0  0
    4.3516   -0.6380   -0.1144 O   0  5  0  0  0  0
    2.7497    1.9269   -0.1703 S   0  0  0  0  0  0
    2.7917    1.6984   -1.9682 C   0  0  0  0  0  0
   -1.0109    0.1151   -0.2283 H   0  0  0  0  0  0
   -0.5733    1.7488   -0.6752 H   0  0  0  0  0  0
   -1.5150    1.4595    0.7679 H   0  0  0  0  0  0
    3.3765    2.4919   -2.4327 H   0  0  0  0  0  0
    1.7806    1.7300   -2.3742 H   0  0  0  0  0  0
    3.2404    0.7413   -2.2315 H   0  0  0  0  0  0
    1.4347   -1.5556    0.5761 H   0  0  0  0  0  0
  1 10  1  0  0  0
  1 11  1  0  0  0
  1 12  1  0  0  0
  1  2  1  0  0  0
  2  3  1  0  0  0
  3  8  1  0  0  0
  3  4  2  0  0  0
  4  5  1  0  0  0
  4 16  1  0  0  0
  5  6  2  0  0  0
  5  7  1  0  0  0
  8  9  1  0  0  0
  9 13  1  0  0  0
  9 14  1  0  0  0
  9 15  1  0  0  0
M  CHG  3   2  -1   5   1   7  -1
M  END
> <s_m_entry_id>
55

> <s_m_entry_name>
biosynth_p1.0.sdf.48

> <s_m_Source_Path>
/Users/Sebastito/Downloads

> <s_m_Source_File>
biosynth_p1.0.sdf.gz

> <i_m_Source_File_Index>
48

> <chiral flag>
0

> <version>
0

> <i_m_ct_enhanced_stereo_status>
0

> <s_m_source_file>
ligprep_vs.maegz

> <i_m_source_file_index>
48

> <i_lp_mmshare_version>
37011

> <r_epik_Ionization_Penalty>
0.0644034

> <r_epik_Ionization_Penalty_Charging>
0.0642688

> <r_epik_Ionization_Penalty_Neutral>
0.000134564

> <r_epik_State_Penalty>
0.22438

> <r_epik_Charging_Adjusted_Penalty>
0.288649

> <i_epik_Tot_Q>
-1

> <i_epik_Tot_abs_Q>
3

> <s_epik_Chemistry_Notes>
This compound has an imine and may undergo hydrolysis.

> <i_f3d_flags>
0

> <s_lp_Force_Field>
OPLS_2005

> <r_lp_Energy>
9.44089

> <b_lp_Chiralities_Consistent>
1

> <s_lp_Variant>
ZINC54962089-1

$$$$
ZINC54962089
                    3D
 Structure written by MMmdl.
 17 16  0  0  1  0            999 V2000
   -0.3353    0.5923   -0.2174 C   0  0  0  0  0  0
    0.8900   -0.1190   -0.5368 N   0  5  0  0  0  0
    1.9949    0.0823    0.2009 C   0  3  0  0  0  0
    2.2684   -0.9620    1.2776 C   0  0  0  0  0  0
    2.0765   -0.3649    2.6418 N   0  3  0  0  0  0
    1.8570   -1.1469    3.5596 O   0  0  0  0  0  0
    2.1693    0.8512    2.7825 O   0  5  0  0  0  0
    3.4311    0.8214   -0.5409 S   0  0  0  0  0  0
    2.8074    1.7503   -1.9704 C   0  0  0  0  0  0
   -1.1335    0.3673   -0.9240 H   0  0  0  0  0  0
   -0.2002    1.6740   -0.2336 H   0  0  0  0  0  0
   -0.7125    0.3377    0.7730 H   0  0  0  0  0  0
    3.6289    2.2651   -2.4681 H   0  0  0  0  0  0
    2.0772    2.4948   -1.6530 H   0  0  0  0  0  0
    2.3361    1.0805   -2.6902 H   0  0  0  0  0  0
    3.2987   -1.3166    1.2394 H   0  0  0  0  0  0
    1.5947   -1.8177    1.2054 H   0  0  0  0  0  0
  1 10  1  0  0  0
  1 11  1  0  0  0
  1 12  1  0  0  0
  1  2  1  0  0  0
  2  3  1  0  0  0
  3  8  1  0  0  0
  3  4  1  0  0  0
  4  5  1  0  0  0
  4 16  1  0  0  0
  4 17  1  0  0  0
  5  6  2  0  0  0
  5  7  1  0  0  0
  8  9  1  0  0  0
  9 13  1  0  0  0
  9 14  1  0  0  0
  9 15  1  0  0  0
M  CHG  4   2  -1   3   1   5   1   7  -1
M  END
> <s_m_entry_id>
55

> <s_m_entry_name>
biosynth_p1.0.sdf.48

> <s_m_Source_Path>
/Users/Sebastito/Downloads

> <s_m_Source_File>
biosynth_p1.0.sdf.gz

> <i_m_Source_File_Index>
48

> <chiral flag>
0

> <version>
0

> <i_m_ct_enhanced_stereo_status>
0

> <s_m_source_file>
ligprep_vs.maegz

> <i_m_source_file_index>
48

> <i_lp_mmshare_version>
37011

> <r_lp_tautomer_probability>
0.499801

> <r_epik_Ionization_Penalty>
0.000819196

> <r_epik_Ionization_Penalty_Charging>
0

> <r_epik_Ionization_Penalty_Neutral>
0.000819196

> <r_epik_State_Penalty>
1.1574

> <r_epik_Charging_Adjusted_Penalty>
1.1574

> <i_epik_Tot_Q>
0

> <i_epik_Tot_abs_Q>
4

> <i_f3d_flags>
0

> <s_lp_Force_Field>
OPLS_2005

> <r_lp_Energy>
-2.21913

> <b_lp_Chiralities_Consistent>
1

> <s_lp_Variant>
ZINC54962089-2

$$$$
ZINC54962089
                    3D
 Structure written by MMmdl.
 17 16  0  0  1  0            999 V2000
   -2.2374    0.7482    0.7645 C   0  0  0  0  0  0
   -0.9306    1.1638    0.3042 N   0  0  0  0  0  0
   -0.2112    0.3800   -0.3958 C   0  0  0  0  0  0
   -0.6274   -1.0287   -0.8411 C   0  0  0  0  0  0
   -0.0517   -2.1071    0.0331 N   0  3  0  0  0  0
    0.1683   -3.1885   -0.5002 O   0  0  0  0  0  0
    0.1486   -1.8748    1.2221 O   0  5  0  0  0  0
    1.4182    0.9898   -0.8927 S   0  0  0  0  0  0
    2.1922   -0.3640   -1.8225 C   0  0  0  0  0  0
   -2.6427    1.4928    1.4494 H   0  0  0  0  0  0
   -2.1992   -0.1979    1.3076 H   0  0  0  0  0  0
   -2.9404    0.6539   -0.0645 H   0  0  0  0  0  0
   -1.7071   -1.1697   -0.8151 H   0  0  0  0  0  0
    3.2026   -0.0760   -2.1124 H   0  0  0  0  0  0
    1.6343   -0.5839   -2.7324 H   0  0  0  0  0  0
    2.2626   -1.2665   -1.2160 H   0  0  0  0  0  0
   -0.3047   -1.2300   -1.8614 H   0  0  0  0  0  0
  1 10  1  0  0  0
  1 11  1  0  0  0
  1 12  1  0  0  0
  1  2  1  0  0  0
  2  3  2  0  0  0
  3  8  1  0  0  0
  3  4  1  0  0  0
  4  5  1  0  0  0
  4 13  1  0  0  0
  4 17  1  0  0  0
  5  6  2  0  0  0
  5  7  1  0  0  0
  8  9  1  0  0  0
  9 14  1  0  0  0
  9 15  1  0  0  0
  9 16  1  0  0  0
M  CHG  2   5   1   7  -1
M  END
> <s_m_entry_id>
55

> <s_m_entry_name>
biosynth_p1.0.sdf.48

> <s_m_Source_Path>
/Users/Sebastito/Downloads

> <s_m_Source_File>
biosynth_p1.0.sdf.gz

> <i_m_Source_File_Index>
48

> <chiral flag>
0

> <version>
0

> <i_m_ct_enhanced_stereo_status>
0

> <s_m_source_file>
ligprep_vs.maegz

> <i_m_source_file_index>
48

> <i_lp_mmshare_version>
37011

> <r_lp_tautomer_probability>
0.499801

> <r_epik_Ionization_Penalty>
1.3479

> <r_epik_Ionization_Penalty_Charging>
0

> <r_epik_Ionization_Penalty_Neutral>
1.3479

> <r_epik_State_Penalty>
1.44855

> <r_epik_Charging_Adjusted_Penalty>
1.44855

> <i_epik_Tot_Q>
0

> <i_epik_Tot_abs_Q>
2

> <s_epik_Chemistry_Notes>
This compound has an imine and may undergo hydrolysis.

> <i_f3d_flags>
0

> <s_lp_Force_Field>
OPLS_2005

> <r_lp_Energy>
7.08855

> <b_lp_Chiralities_Consistent>
1

> <s_lp_Variant>
ZINC54962089-3

$$$$
ZINC54962089
                    3D
 Structure written by MMmdl.
 17 16  0  0  1  0            999 V2000
    0.0946    2.5460   -0.3385 C   0  0  0  0  0  0
   -0.6277    1.2970   -0.2310 N   0  0  0  0  0  0
   -0.0503    0.2542    0.2230 C   0  0  0  0  0  0
   -0.8142   -1.0637    0.3455 C   0  0  0  0  0  0
   -1.9983   -1.1263   -0.5732 N   0  3  0  0  0  0
   -1.7850   -1.2751   -1.7722 O   0  0  0  0  0  0
   -3.1128   -1.0505   -0.0678 O   0  5  0  0  0  0
    1.6837    0.2612    0.7779 S   0  0  0  0  0  0
    1.9809   -1.3977    1.4519 C   0  0  0  0  0  0
   -0.5533    3.3130   -0.7627 H   0  0  0  0  0  0
    0.9613    2.4575   -0.9959 H   0  0  0  0  0  0
    0.4243    2.9063    0.6374 H   0  0  0  0  0  0
   -0.1953   -1.9128    0.0602 H   0  0  0  0  0  0
    2.9740   -1.4395    1.8990 H   0  0  0  0  0  0
    1.9369   -2.1514    0.6661 H   0  0  0  0  0  0
    1.2511   -1.6409    2.2242 H   0  0  0  0  0  0
   -1.1777   -1.2077    1.3636 H   0  0  0  0  0  0
  1 10  1  0  0  0
  1 11  1  0  0  0
  1 12  1  0  0  0
  1  2  1  0  0  0
  2  3  2  0  0  0
  3  8  1  0  0  0
  3  4  1  0  0  0
  4  5  1  0  0  0
  4 13  1  0  0  0
  4 17  1  0  0  0
  5  6  2  0  0  0
  5  7  1  0  0  0
  8  9  1  0  0  0
  9 14  1  0  0  0
  9 15  1  0  0  0
  9 16  1  0  0  0
M  CHG  2   5   1   7  -1
M  END
> <s_m_entry_id>
55

> <s_m_entry_name>
biosynth_p1.0.sdf.48

> <s_m_Source_Path>
/Users/Sebastito/Downloads

> <s_m_Source_File>
biosynth_p1.0.sdf.gz

> <i_m_Source_File_Index>
48

> <chiral flag>
0

> <version>
0

> <i_m_ct_enhanced_stereo_status>
0

> <s_m_source_file>
ligprep_vs.maegz

> <i_m_source_file_index>
48

> <i_lp_mmshare_version>
37011

> <r_lp_tautomer_probability>
0.499801

> <r_epik_Ionization_Penalty>
1.3479

> <r_epik_Ionization_Penalty_Charging>
0

> <r_epik_Ionization_Penalty_Neutral>
1.3479

> <r_epik_State_Penalty>
1.44855

> <r_epik_Charging_Adjusted_Penalty>
1.44855

> <i_epik_Tot_Q>
0

> <i_epik_Tot_abs_Q>
2

> <s_epik_Chemistry_Notes>
This compound has an imine and may undergo hydrolysis.

> <i_f3d_flags>
0

> <s_lp_Force_Field>
OPLS_2005

> <r_lp_Energy>
8.62166

> <b_lp_Chiralities_Consistent>
1

> <s_lp_Variant>
ZINC54962089-4

$$$$
ZINC02033904
                    3D
 Structure written by MMmdl.
 11 11  0  0  1  0            999 V2000
    0.5990    0.3709   -1.1814 C   0  0  0  0  0  0
   -0.7459    0.4672   -1.1206 C   0  0  0  0  0  0
   -1.4443    0.0865    0.1125 C   0  0  0  0  0  0
   -0.7017   -0.3567    1.1670 N   0  5  0  0  0  0
    0.6510   -0.4431    1.0765 C   0  0  0  0  0  0
    1.3840   -0.1023   -0.0538 C   0  0  0  0  0  0
    3.1040   -0.2122   -0.1684 Cl  0  0  0  0  0  0
    1.4638   -1.0200    2.4868 Cl  0  0  0  0  0  0
   -2.6699    0.1752    0.1652 O   0  0  0  0  0  0
   -1.6416    1.0351   -2.4854 Cl  0  0  0  0  0  0
    1.1067    0.6527   -2.0919 H   0  0  0  0  0  0
  1  6  1  0  0  0
  1 11  1  0  0  0
  1  2  2  0  0  0
  2  3  1  0  0  0
  2 10  1  0  0  0
  3  9  2  0  0  0
  3  4  1  0  0  0
  4  5  1  0  0  0
  5  8  1  0  0  0
  5  6  2  0  0  0
  6  7  1  0  0  0
M  CHG  1   4  -1
M  END
> <s_m_entry_id>
56

> <s_m_entry_name>
biosynth_p1.0.sdf.49

> <s_m_Source_Path>
/Users/Sebastito/Downloads

> <s_m_Source_File>
biosynth_p1.0.sdf.gz

> <i_m_Source_File_Index>
49

> <chiral flag>
0

> <version>
0

> <i_m_ct_enhanced_stereo_status>
0

> <s_m_source_file>
ligprep_vs.maegz

> <i_m_source_file_index>
49

> <i_lp_mmshare_version>
37011

> <i_f3d_flags>
0

> <r_lp_tautomer_probability>
1

> <r_epik_Ionization_Penalty>
0.00368606

> <r_epik_Ionization_Penalty_Charging>
0.000548248

> <r_epik_Ionization_Penalty_Neutral>
0.00313782

> <r_epik_State_Penalty>
-0

> <r_epik_Charging_Adjusted_Penalty>
0.000548248

> <i_epik_Tot_Q>
-1

> <i_epik_Tot_abs_Q>
1

> <s_lp_Force_Field>
OPLS_2005

> <r_lp_Energy>
12.4315

> <b_lp_Chiralities_Consistent>
1

> <s_lp_Variant>
ZINC02033904-1

$$$$
ZINC98231316
                    3D
 Structure written by MMmdl.
 75 80  0  0  1  0            999 V2000
   -0.4639   -1.6598   -1.4456 C   0  0  0  0  0  0
   -0.6588   -0.4310   -0.9386 C   0  0  0  0  0  0
    0.0940    0.1483    0.2407 C   0  0  2  0  0  0
   -0.1907   -0.4459    1.1107 H   0  0  0  0  0  0
   -0.4682    1.5654    0.4103 C   0  0  0  0  0  0
   -1.8764    1.5137   -0.1999 C   0  0  1  0  0  0
   -2.2032    2.5100   -0.5042 H   0  0  0  0  0  0
   -1.7460    0.5305   -1.3808 C   0  0  1  0  0  0
   -2.6708   -0.0237   -1.5420 H   0  0  0  0  0  0
   -1.3835    1.2688   -2.6817 C   0  0  0  0  0  0
   -1.1603    0.3294   -3.7185 O   0  0  0  0  0  0
   -0.8451    0.9349   -4.9602 C   0  0  0  0  0  0
   -0.4009   -0.0909   -5.9838 C   0  0  0  0  0  0
    0.4332   -1.1623   -5.5976 C   0  0  0  0  0  0
    0.8624   -2.1050   -6.5516 C   0  0  0  0  0  0
    0.4634   -1.9780   -7.8962 C   0  0  0  0  0  0
   -0.3621   -0.9060   -8.2868 C   0  0  0  0  0  0
   -0.7905    0.0383   -7.3334 C   0  0  0  0  0  0
   -2.7516    0.9818    0.7856 O   0  0  0  0  0  0
   -4.1225    1.2756    0.5601 C   0  0  0  0  0  0
   -5.0129    0.5510    1.5493 C   0  0  0  0  0  0
   -4.8727   -0.8408    1.7310 C   0  0  0  0  0  0
   -5.7047   -1.5240    2.6392 C   0  0  0  0  0  0
   -6.6829   -0.8184    3.3662 C   0  0  0  0  0  0
   -6.8307    0.5702    3.1825 C   0  0  0  0  0  0
   -5.9991    1.2539    2.2737 C   0  0  0  0  0  0
    1.5469    0.1254    0.1249 N   0  0  0  0  0  0
    2.4129   -0.1170    1.1305 C   0  0  0  0  0  0
    3.7129   -0.0689    0.8496 N   0  0  0  0  0  0
    3.6876    0.2529   -0.4948 C   0  0  0  0  0  0
    2.3610    0.3859   -0.9775 C   0  0  0  0  0  0
    2.0208    0.7039   -2.2601 N   0  0  0  0  0  0
    3.0672    0.8862   -3.0810 C   0  0  0  0  0  0
    4.3590    0.7866   -2.7212 N   0  3  0  0  0  0
    4.7078    0.4754   -1.4413 C   0  0  0  0  0  0
    6.0358    0.3850   -1.0840 O   0  0  0  0  0  0
    7.0207    0.6620   -2.0729 C   0  0  0  0  0  0
    8.4188    0.5315   -1.5030 C   0  0  0  0  0  0
    8.8694   -0.7182   -1.0287 C   0  0  0  0  0  0
   10.1676   -0.8479   -0.4979 C   0  0  0  0  0  0
   11.0200    0.2716   -0.4403 C   0  0  0  0  0  0
   10.5745    1.5204   -0.9149 C   0  0  0  0  0  0
    9.2767    1.6505   -1.4472 C   0  0  0  0  0  0
    2.7956    1.2006   -4.3910 N   0  0  0  0  0  0
   -1.0684   -2.0288   -2.2612 H   0  0  0  0  0  0
    0.3019   -2.3118   -1.0522 H   0  0  0  0  0  0
   -0.4707    1.8940    1.4503 H   0  0  0  0  0  0
    0.1364    2.2784   -0.1524 H   0  0  0  0  0  0
   -2.1968    1.9393   -2.9633 H   0  0  0  0  0  0
   -0.4943    1.8839   -2.5388 H   0  0  0  0  0  0
   -1.7151    1.4803   -5.3293 H   0  0  0  0  0  0
   -0.0375    1.6572   -4.8356 H   0  0  0  0  0  0
    0.7460   -1.2651   -4.5686 H   0  0  0  0  0  0
    1.4975   -2.9256   -6.2519 H   0  0  0  0  0  0
    0.7913   -2.7013   -8.6281 H   0  0  0  0  0  0
   -0.6662   -0.8072   -9.3185 H   0  0  0  0  0  0
   -1.4206    0.8597   -7.6421 H   0  0  0  0  0  0
   -4.2802    2.3526    0.6369 H   0  0  0  0  0  0
   -4.4233    0.9784   -0.4449 H   0  0  0  0  0  0
   -4.1257   -1.3872    1.1737 H   0  0  0  0  0  0
   -5.5931   -2.5893    2.7771 H   0  0  0  0  0  0
   -7.3206   -1.3428    4.0625 H   0  0  0  0  0  0
   -7.5823    1.1115    3.7380 H   0  0  0  0  0  0
   -6.1210    2.3184    2.1378 H   0  0  0  0  0  0
    2.0676   -0.3403    2.1298 H   0  0  0  0  0  0
    6.9248   -0.0364   -2.9058 H   0  0  0  0  0  0
    6.8817    1.6693   -2.4693 H   0  0  0  0  0  0
    8.2188   -1.5797   -1.0694 H   0  0  0  0  0  0
   10.5096   -1.8056   -0.1338 H   0  0  0  0  0  0
   12.0151    0.1726   -0.0323 H   0  0  0  0  0  0
   11.2281    2.3790   -0.8704 H   0  0  0  0  0  0
    8.9436    2.6128   -1.8075 H   0  0  0  0  0  0
    1.8409    1.2379   -4.7188 H   0  0  0  0  0  0
    3.5445    1.3031   -5.0607 H   0  0  0  0  0  0
    5.0973    0.9458   -3.4069 H   0  0  0  0  0  0
  1  2  2  0  0  0
  1 45  1  0  0  0
  1 46  1  0  0  0
  2  8  1  0  0  0
  2  3  1  0  0  0
  3  4  1  0  0  0
  3  5  1  0  0  0
  3 27  1  0  0  0
  5  6  1  0  0  0
  5 47  1  0  0  0
  5 48  1  0  0  0
  6  7  1  0  0  0
  6  8  1  0  0  0
  6 19  1  0  0  0
  8  9  1  0  0  0
  8 10  1  0  0  0
 10 11  1  0  0  0
 10 49  1  0  0  0
 10 50  1  0  0  0
 11 12  1  0  0  0
 12 13  1  0  0  0
 12 51  1  0  0  0
 12 52  1  0  0  0
 13 18  2  0  0  0
 13 14  1  0  0  0
 14 15  2  0  0  0
 14 53  1  0  0  0
 15 16  1  0  0  0
 15 54  1  0  0  0
 16 17  2  0  0  0
 16 55  1  0  0  0
 17 18  1  0  0  0
 17 56  1  0  0  0
 18 57  1  0  0  0
 19 20  1  0  0  0
 20 21  1  0  0  0
 20 58  1  0  0  0
 20 59  1  0  0  0
 21 26  2  0  0  0
 21 22  1  0  0  0
 22 23  2  0  0  0
 22 60  1  0  0  0
 23 24  1  0  0  0
 23 61  1  0  0  0
 24 25  2  0  0  0
 24 62  1  0  0  0
 25 26  1  0  0  0
 25 63  1  0  0  0
 26 64  1  0  0  0
 27 31  1  0  0  0
 27 28  1  0  0  0
 28 29  2  0  0  0
 28 65  1  0  0  0
 29 30  1  0  0  0
 30 35  2  0  0  0
 30 31  1  0  0  0
 31 32  2  0  0  0
 32 33  1  0  0  0
 33 34  2  0  0  0
 33 44  1  0  0  0
 34 35  1  0  0  0
 34 75  1  0  0  0
 35 36  1  0  0  0
 36 37  1  0  0  0
 37 38  1  0  0  0
 37 66  1  0  0  0
 37 67  1  0  0  0
 38 43  2  0  0  0
 38 39  1  0  0  0
 39 40  2  0  0  0
 39 68  1  0  0  0
 40 41  1  0  0  0
 40 69  1  0  0  0
 41 42  2  0  0  0
 41 70  1  0  0  0
 42 43  1  0  0  0
 42 71  1  0  0  0
 43 72  1  0  0  0
 44 73  1  0  0  0
 44 74  1  0  0  0
M  CHG  1  34   1
M  END
> <s_m_entry_id>
57

> <s_m_entry_name>
biosynth_p1.0.sdf.50

> <s_m_Source_Path>
/Users/Sebastito/Downloads

> <s_m_Source_File>
biosynth_p1.0.sdf.gz

> <i_m_Source_File_Index>
50

> <chiral flag>
1

> <version>
0

> <i_m_ct_enhanced_stereo_status>
0

> <s_m_source_file>
ligprep_vs.maegz

> <i_m_source_file_index>
50

> <i_lp_mmshare_version>
37011

> <r_epik_Ionization_Penalty>
0.362093

> <r_epik_Ionization_Penalty_Charging>
0.359958

> <r_epik_Ionization_Penalty_Neutral>
0.00213482

> <r_epik_State_Penalty>
0.356724

> <r_epik_Charging_Adjusted_Penalty>
0.716682

> <i_epik_Tot_Q>
1

> <i_epik_Tot_abs_Q>
1

> <i_f3d_flags>
0

> <s_lp_Force_Field>
OPLS_2005

> <r_lp_Energy>
51.1795

> <b_lp_Chiralities_Consistent>
1

> <s_lp_Variant>
ZINC98231316-1

$$$$
ZINC98231316
                    3D
 Structure written by MMmdl.
 74 79  0  0  1  0            999 V2000
   -0.4939   -1.6697   -1.4544 C   0  0  0  0  0  0
   -0.6827   -0.4410   -0.9448 C   0  0  0  0  0  0
    0.0743    0.1327    0.2346 C   0  0  2  0  0  0
   -0.2190   -0.4550    1.1061 H   0  0  0  0  0  0
   -0.4710    1.5569    0.3977 C   0  0  0  0  0  0
   -1.8799    1.5189   -0.2115 C   0  0  1  0  0  0
   -2.1943    2.5176   -0.5207 H   0  0  0  0  0  0
   -1.7625    0.5287   -1.3879 C   0  0  1  0  0  0
   -2.6935   -0.0169   -1.5437 H   0  0  0  0  0  0
   -1.3965    1.2561   -2.6940 C   0  0  0  0  0  0
   -1.2085    0.3093   -3.7310 O   0  0  0  0  0  0
   -0.8483    0.9021   -4.9665 C   0  0  0  0  0  0
   -0.4461   -0.1456   -5.9846 C   0  0  0  0  0  0
    0.4245   -1.1916   -5.6115 C   0  0  0  0  0  0
    0.8137   -2.1598   -6.5572 C   0  0  0  0  0  0
    0.3378   -2.0830   -7.8804 C   0  0  0  0  0  0
   -0.5241   -1.0354   -8.2585 C   0  0  0  0  0  0
   -0.9136   -0.0662   -7.3132 C   0  0  0  0  0  0
   -2.7625    1.0033    0.7767 O   0  0  0  0  0  0
   -4.1296    1.3120    0.5473 C   0  0  0  0  0  0
   -5.0320    0.5966    1.5328 C   0  0  0  0  0  0
   -4.8932   -0.7933    1.7312 C   0  0  0  0  0  0
   -5.7379   -1.4679    2.6341 C   0  0  0  0  0  0
   -6.7274   -0.7558    3.3392 C   0  0  0  0  0  0
   -6.8733    0.6306    3.1390 C   0  0  0  0  0  0
   -6.0290    1.3058    2.2356 C   0  0  0  0  0  0
    1.5272    0.0923    0.1221 N   0  0  0  0  0  0
    2.3876   -0.1740    1.1262 C   0  0  0  0  0  0
    3.6894   -0.1398    0.8514 N   0  0  0  0  0  0
    3.6755    0.1991   -0.4895 C   0  0  0  0  0  0
    2.3461    0.3559   -0.9759 C   0  0  0  0  0  0
    2.0067    0.6953   -2.2555 N   0  0  0  0  0  0
    3.0854    0.8631   -3.0286 C   0  0  0  0  0  0
    4.3779    0.7495   -2.7011 N   0  0  0  0  0  0
    4.7127    0.4183   -1.4256 C   0  0  0  0  0  0
    6.0361    0.3072   -1.0557 O   0  0  0  0  0  0
    7.0358    0.5739   -2.0341 C   0  0  0  0  0  0
    8.4332    0.4638   -1.4541 C   0  0  0  0  0  0
    8.7011    0.9314   -0.1494 C   0  0  0  0  0  0
   10.0026    0.8437    0.3817 C   0  0  0  0  0  0
   11.0434    0.2945   -0.3917 C   0  0  0  0  0  0
   10.7829   -0.1640   -1.6975 C   0  0  0  0  0  0
    9.4813   -0.0764   -2.2291 C   0  0  0  0  0  0
    2.8331    1.1971   -4.3363 N   0  0  0  0  0  0
   -1.0990   -2.0331   -2.2719 H   0  0  0  0  0  0
    0.2691   -2.3255   -1.0622 H   0  0  0  0  0  0
   -0.4685    1.8911    1.4358 H   0  0  0  0  0  0
    0.1420    2.2590   -0.1698 H   0  0  0  0  0  0
   -2.1960    1.9452   -2.9705 H   0  0  0  0  0  0
   -0.4920    1.8504   -2.5598 H   0  0  0  0  0  0
   -1.6832    1.4947   -5.3435 H   0  0  0  0  0  0
   -0.0046    1.5798   -4.8306 H   0  0  0  0  0  0
    0.7963   -1.2532   -4.5987 H   0  0  0  0  0  0
    1.4775   -2.9611   -6.2671 H   0  0  0  0  0  0
    0.6353   -2.8262   -8.6054 H   0  0  0  0  0  0
   -0.8859   -0.9745   -9.2742 H   0  0  0  0  0  0
   -1.5731    0.7357   -7.6114 H   0  0  0  0  0  0
   -4.2747    2.3907    0.6246 H   0  0  0  0  0  0
   -4.4303    1.0191   -0.4592 H   0  0  0  0  0  0
   -4.1376   -1.3445    1.1905 H   0  0  0  0  0  0
   -5.6273   -2.5318    2.7848 H   0  0  0  0  0  0
   -7.3752   -1.2731    4.0318 H   0  0  0  0  0  0
   -7.6339    1.1767    3.6776 H   0  0  0  0  0  0
   -6.1492    2.3690    2.0868 H   0  0  0  0  0  0
    2.0370   -0.4050    2.1216 H   0  0  0  0  0  0
    6.9344   -0.1269   -2.8647 H   0  0  0  0  0  0
    6.9167    1.5831   -2.4321 H   0  0  0  0  0  0
    7.9098    1.3588    0.4492 H   0  0  0  0  0  0
   10.2023    1.1993    1.3818 H   0  0  0  0  0  0
   12.0416    0.2277    0.0154 H   0  0  0  0  0  0
   11.5821   -0.5817   -2.2920 H   0  0  0  0  0  0
    9.2907   -0.4265   -3.2331 H   0  0  0  0  0  0
    3.5936    1.2817   -4.9952 H   0  0  0  0  0  0
    1.8837    1.2352   -4.6776 H   0  0  0  0  0  0
  1  2  2  0  0  0
  1 45  1  0  0  0
  1 46  1  0  0  0
  2  8  1  0  0  0
  2  3  1  0  0  0
  3  4  1  0  0  0
  3  5  1  0  0  0
  3 27  1  0  0  0
  5  6  1  0  0  0
  5 47  1  0  0  0
  5 48  1  0  0  0
  6  7  1  0  0  0
  6  8  1  0  0  0
  6 19  1  0  0  0
  8  9  1  0  0  0
  8 10  1  0  0  0
 10 11  1  0  0  0
 10 49  1  0  0  0
 10 50  1  0  0  0
 11 12  1  0  0  0
 12 13  1  0  0  0
 12 51  1  0  0  0
 12 52  1  0  0  0
 13 18  2  0  0  0
 13 14  1  0  0  0
 14 15  2  0  0  0
 14 53  1  0  0  0
 15 16  1  0  0  0
 15 54  1  0  0  0
 16 17  2  0  0  0
 16 55  1  0  0  0
 17 18  1  0  0  0
 17 56  1  0  0  0
 18 57  1  0  0  0
 19 20  1  0  0  0
 20 21  1  0  0  0
 20 58  1  0  0  0
 20 59  1  0  0  0
 21 26  2  0  0  0
 21 22  1  0  0  0
 22 23  2  0  0  0
 22 60  1  0  0  0
 23 24  1  0  0  0
 23 61  1  0  0  0
 24 25  2  0  0  0
 24 62  1  0  0  0
 25 26  1  0  0  0
 25 63  1  0  0  0
 26 64  1  0  0  0
 27 31  1  0  0  0
 27 28  1  0  0  0
 28 29  2  0  0  0
 28 65  1  0  0  0
 29 30  1  0  0  0
 30 35  2  0  0  0
 30 31  1  0  0  0
 31 32  2  0  0  0
 32 33  1  0  0  0
 33 34  2  0  0  0
 33 44  1  0  0  0
 34 35  1  0  0  0
 35 36  1  0  0  0
 36 37  1  0  0  0
 37 38  1  0  0  0
 37 66  1  0  0  0
 37 67  1  0  0  0
 38 43  2  0  0  0
 38 39  1  0  0  0
 39 40  2  0  0  0
 39 68  1  0  0  0
 40 41  1  0  0  0
 40 69  1  0  0  0
 41 42  2  0  0  0
 41 70  1  0  0  0
 42 43  1  0  0  0
 42 71  1  0  0  0
 43 72  1  0  0  0
 44 73  1  0  0  0
 44 74  1  0  0  0
M  END
> <s_m_entry_id>
57

> <s_m_entry_name>
biosynth_p1.0.sdf.50

> <s_m_Source_Path>
/Users/Sebastito/Downloads

> <s_m_Source_File>
biosynth_p1.0.sdf.gz

> <i_m_Source_File_Index>
50

> <chiral flag>
1

> <version>
0

> <i_m_ct_enhanced_stereo_status>
0

> <s_m_source_file>
ligprep_vs.maegz

> <i_m_source_file_index>
50

> <i_lp_mmshare_version>
37011

> <r_lp_tautomer_probability>
1

> <r_epik_Ionization_Penalty>
0.466681

> <r_epik_Ionization_Penalty_Charging>
0

> <r_epik_Ionization_Penalty_Neutral>
0.466681

> <r_epik_State_Penalty>
0.470046

> <r_epik_Charging_Adjusted_Penalty>
0.470046

> <i_epik_Tot_Q>
0

> <i_epik_Tot_abs_Q>
0

> <i_f3d_flags>
0

> <s_lp_Force_Field>
OPLS_2005

> <r_lp_Energy>
44.0609

> <b_lp_Chiralities_Consistent>
1

> <s_lp_Variant>
ZINC98231316-2

$$$$
ZINC59447665
                    3D
 Structure written by MMmdl.
 13 12  0  0  1  0            999 V2000
   -0.0329   -0.0206    0.0108 C   0  0  0  0  0  0
    1.4411   -0.0664   -0.0693 N   0  3  0  0  0  0
    1.9761    0.6897   -1.2196 C   0  0  0  0  0  0
    1.9525   -1.4336   -0.0235 N   0  0  0  0  0  0
   -0.3838    1.0106    0.0596 H   0  0  0  0  0  0
   -0.3847   -0.5360    0.9053 H   0  0  0  0  0  0
   -0.4866   -0.4963   -0.8600 H   0  0  0  0  0  0
    1.6469    1.7286   -1.1838 H   0  0  0  0  0  0
    1.6406    0.2558   -2.1626 H   0  0  0  0  0  0
    3.0667    0.6843   -1.2083 H   0  0  0  0  0  0
    2.9371   -1.2344    0.0824 H   0  0  0  0  0  0
    1.6158   -1.7016    0.8904 H   0  0  0  0  0  0
    1.8003    0.3691    0.7688 H   0  0  0  0  0  0
  1  2  1  0  0  0
  1  5  1  0  0  0
  1  6  1  0  0  0
  1  7  1  0  0  0
  2  3  1  0  0  0
  2  4  1  0  0  0
  2 13  1  0  0  0
  3  8  1  0  0  0
  3  9  1  0  0  0
  3 10  1  0  0  0
  4 11  1  0  0  0
  4 12  1  0  0  0
M  CHG  1   2   1
M  END
> <s_m_entry_id>
58

> <s_m_entry_name>
biosynth_p1.0.sdf.51

> <s_m_Source_Path>
/Users/Sebastito/Downloads

> <s_m_Source_File>
biosynth_p1.0.sdf.gz

> <i_m_Source_File_Index>
51

> <chiral flag>
0

> <version>
0

> <i_m_ct_enhanced_stereo_status>
0

> <s_m_source_file>
ligprep_vs.maegz

> <i_m_source_file_index>
51

> <i_lp_mmshare_version>
37011

> <r_epik_Ionization_Penalty>
0.176374

> <r_epik_Ionization_Penalty_Charging>
0.176374

> <r_epik_Ionization_Penalty_Neutral>
1.16026e-09

> <r_epik_State_Penalty>
0.26039

> <r_epik_Charging_Adjusted_Penalty>
0.436764

> <i_epik_Tot_Q>
1

> <i_epik_Tot_abs_Q>
1

> <i_f3d_flags>
0

> <s_lp_Force_Field>
OPLS_2005

> <r_lp_Energy>
4.40921

> <b_lp_Chiralities_Consistent>
1

> <s_lp_Variant>
ZINC59447665-1

$$$$
ZINC59447665
                    3D
 Structure written by MMmdl.
 12 11  0  0  1  0            999 V2000
   -0.0256   -0.0131    0.0025 C   0  0  0  0  0  0
    1.4358   -0.0543   -0.0711 N   0  0  0  0  0  0
    1.9641    0.6915   -1.2144 C   0  0  0  0  0  0
    1.9479   -1.3709    0.0040 N   0  0  0  0  0  0
   -0.3713    1.0208    0.0271 H   0  0  0  0  0  0
   -0.3712   -0.5122    0.9084 H   0  0  0  0  0  0
   -0.4644   -0.5093   -0.8642 H   0  0  0  0  0  0
    1.6113    1.7229   -1.1854 H   0  0  0  0  0  0
    1.6379    0.2352   -2.1500 H   0  0  0  0  0  0
    3.0543    0.7008   -1.1866 H   0  0  0  0  0  0
    2.9644   -1.3265    0.0374 H   0  0  0  0  0  0
    1.6148   -1.8045    0.8628 H   0  0  0  0  0  0
  1  2  1  0  0  0
  1  5  1  0  0  0
  1  6  1  0  0  0
  1  7  1  0  0  0
  2  3  1  0  0  0
  2  4  1  0  0  0
  3  8  1  0  0  0
  3  9  1  0  0  0
  3 10  1  0  0  0
  4 11  1  0  0  0
  4 12  1  0  0  0
M  END
> <s_m_entry_id>
58

> <s_m_entry_name>
biosynth_p1.0.sdf.51

> <s_m_Source_Path>
/Users/Sebastito/Downloads

> <s_m_Source_File>
biosynth_p1.0.sdf.gz

> <i_m_Source_File_Index>
51

> <chiral flag>
0

> <version>
0

> <i_m_ct_enhanced_stereo_status>
0

> <s_m_source_file>
ligprep_vs.maegz

> <i_m_source_file_index>
51

> <i_lp_mmshare_version>
37011

> <r_epik_Ionization_Penalty>
1.12677

> <r_epik_Ionization_Penalty_Charging>
0

> <r_epik_Ionization_Penalty_Neutral>
1.12677

> <r_epik_State_Penalty>
0.930041

> <r_epik_Charging_Adjusted_Penalty>
0.930041

> <i_epik_Tot_Q>
0

> <i_epik_Tot_abs_Q>
0

> <i_f3d_flags>
0

> <s_lp_Force_Field>
OPLS_2005

> <r_lp_Energy>
2.92797

> <b_lp_Chiralities_Consistent>
1

> <s_lp_Variant>
ZINC59447665-2

$$$$
ZINC59447665
                    3D
 Structure written by MMmdl.
 13 12  0  0  1  0            999 V2000
    0.0064   -0.0020   -0.0004 C   0  0  0  0  0  0
    1.4606    0.0041   -0.0034 N   0  0  0  0  0  0
    1.9465    0.6850    1.1862 C   0  0  0  0  0  0
    1.9476   -1.3726   -0.0025 N   0  3  0  0  0  0
   -0.3797    1.0180   -0.0068 H   0  0  0  0  0  0
   -0.3884   -0.5108    0.8804 H   0  0  0  0  0  0
   -0.3750   -0.5062   -0.8892 H   0  0  0  0  0  0
    1.5989    1.7186    1.2033 H   0  0  0  0  0  0
    3.0370    0.7021    1.1977 H   0  0  0  0  0  0
    1.6000    0.1933    2.0965 H   0  0  0  0  0  0
    2.9568   -1.3319   -0.0031 H   0  0  0  0  0  0
    1.5929   -1.8149   -0.8384 H   0  0  0  0  0  0
    1.5929   -1.8159    0.8329 H   0  0  0  0  0  0
  1  2  1  0  0  0
  1  5  1  0  0  0
  1  6  1  0  0  0
  1  7  1  0  0  0
  2  3  1  0  0  0
  2  4  1  0  0  0
  3  8  1  0  0  0
  3  9  1  0  0  0
  3 10  1  0  0  0
  4 11  1  0  0  0
  4 12  1  0  0  0
  4 13  1  0  0  0
M  CHG  1   4   1
M  END
> <s_m_entry_id>
58

> <s_m_entry_name>
biosynth_p1.0.sdf.51

> <s_m_Source_Path>
/Users/Sebastito/Downloads

> <s_m_Source_File>
biosynth_p1.0.sdf.gz

> <i_m_Source_File_Index>
51

> <chiral flag>
0

> <version>
0

> <i_m_ct_enhanced_stereo_status>
0

> <s_m_source_file>
ligprep_vs.maegz

> <i_m_source_file_index>
51

> <i_lp_mmshare_version>
37011

> <r_epik_Ionization_Penalty>
0.51384

> <r_epik_Ionization_Penalty_Charging>
0.51384

> <r_epik_Ionization_Penalty_Neutral>
4.78275e-11

> <r_epik_State_Penalty>
1.13385

> <r_epik_Charging_Adjusted_Penalty>
1.64769

> <i_epik_Tot_Q>
1

> <i_epik_Tot_abs_Q>
1

> <i_f3d_flags>
0

> <s_lp_Force_Field>
OPLS_2005

> <r_lp_Energy>
6.10088

> <b_lp_Chiralities_Consistent>
1

> <s_lp_Variant>
ZINC59447665-3

$$$$
ZINC59447665
                    3D
 Structure written by MMmdl.
 13 12  0  0  1  0            999 V2000
   -0.0329   -0.0206    0.0108 C   0  0  0  0  0  0
    1.4411   -0.0664   -0.0693 N   0  3  0  0  0  0
    1.9761    0.6897   -1.2196 C   0  0  0  0  0  0
    1.9525   -1.4336   -0.0235 N   0  0  0  0  0  0
   -0.3838    1.0106    0.0596 H   0  0  0  0  0  0
   -0.3847   -0.5360    0.9053 H   0  0  0  0  0  0
   -0.4866   -0.4963   -0.8600 H   0  0  0  0  0  0
    1.6469    1.7286   -1.1838 H   0  0  0  0  0  0
    1.6406    0.2558   -2.1626 H   0  0  0  0  0  0
    3.0667    0.6843   -1.2083 H   0  0  0  0  0  0
    2.9371   -1.2344    0.0824 H   0  0  0  0  0  0
    1.6158   -1.7016    0.8904 H   0  0  0  0  0  0
    1.8003    0.3691    0.7688 H   0  0  0  0  0  0
  1  2  1  0  0  0
  1  5  1  0  0  0
  1  6  1  0  0  0
  1  7  1  0  0  0
  2  3  1  0  0  0
  2  4  1  0  0  0
  2 13  1  0  0  0
  3  8  1  0  0  0
  3  9  1  0  0  0
  3 10  1  0  0  0
  4 11  1  0  0  0
  4 12  1  0  0  0
M  CHG  1   2   1
M  END
> <s_m_entry_id>
59

> <s_m_entry_name>
biosynth_p1.0.sdf.52

> <s_m_Source_Path>
/Users/Sebastito/Downloads

> <s_m_Source_File>
biosynth_p1.0.sdf.gz

> <i_m_Source_File_Index>
52

> <chiral flag>
0

> <version>
0

> <i_m_ct_enhanced_stereo_status>
0

> <s_m_source_file>
ligprep_vs.maegz

> <i_m_source_file_index>
52

> <i_lp_mmshare_version>
37011

> <r_epik_Ionization_Penalty>
0.176374

> <r_epik_Ionization_Penalty_Charging>
0.176374

> <r_epik_Ionization_Penalty_Neutral>
1.16026e-09

> <r_epik_State_Penalty>
0.26039

> <r_epik_Charging_Adjusted_Penalty>
0.436764

> <i_epik_Tot_Q>
1

> <i_epik_Tot_abs_Q>
1

> <i_f3d_flags>
0

> <s_lp_Force_Field>
OPLS_2005

> <r_lp_Energy>
4.40921

> <b_lp_Chiralities_Consistent>
1

> <s_lp_Variant>
ZINC59447665-1

$$$$
ZINC59447665
                    3D
 Structure written by MMmdl.
 12 11  0  0  1  0            999 V2000
   -0.0256   -0.0131    0.0025 C   0  0  0  0  0  0
    1.4358   -0.0543   -0.0711 N   0  0  0  0  0  0
    1.9641    0.6915   -1.2144 C   0  0  0  0  0  0
    1.9479   -1.3709    0.0040 N   0  0  0  0  0  0
   -0.3713    1.0208    0.0271 H   0  0  0  0  0  0
   -0.3712   -0.5122    0.9084 H   0  0  0  0  0  0
   -0.4644   -0.5093   -0.8642 H   0  0  0  0  0  0
    1.6113    1.7229   -1.1854 H   0  0  0  0  0  0
    1.6379    0.2352   -2.1500 H   0  0  0  0  0  0
    3.0543    0.7008   -1.1866 H   0  0  0  0  0  0
    2.9644   -1.3265    0.0374 H   0  0  0  0  0  0
    1.6148   -1.8045    0.8628 H   0  0  0  0  0  0
  1  2  1  0  0  0
  1  5  1  0  0  0
  1  6  1  0  0  0
  1  7  1  0  0  0
  2  3  1  0  0  0
  2  4  1  0  0  0
  3  8  1  0  0  0
  3  9  1  0  0  0
  3 10  1  0  0  0
  4 11  1  0  0  0
  4 12  1  0  0  0
M  END
> <s_m_entry_id>
59

> <s_m_entry_name>
biosynth_p1.0.sdf.52

> <s_m_Source_Path>
/Users/Sebastito/Downloads

> <s_m_Source_File>
biosynth_p1.0.sdf.gz

> <i_m_Source_File_Index>
52

> <chiral flag>
0

> <version>
0

> <i_m_ct_enhanced_stereo_status>
0

> <s_m_source_file>
ligprep_vs.maegz

> <i_m_source_file_index>
52

> <i_lp_mmshare_version>
37011

> <r_epik_Ionization_Penalty>
1.12677

> <r_epik_Ionization_Penalty_Charging>
0

> <r_epik_Ionization_Penalty_Neutral>
1.12677

> <r_epik_State_Penalty>
0.930041

> <r_epik_Charging_Adjusted_Penalty>
0.930041

> <i_epik_Tot_Q>
0

> <i_epik_Tot_abs_Q>
0

> <i_f3d_flags>
0

> <s_lp_Force_Field>
OPLS_2005

> <r_lp_Energy>
2.92797

> <b_lp_Chiralities_Consistent>
1

> <s_lp_Variant>
ZINC59447665-2

$$$$
ZINC59447665
                    3D
 Structure written by MMmdl.
 13 12  0  0  1  0            999 V2000
    0.0064   -0.0020   -0.0004 C   0  0  0  0  0  0
    1.4606    0.0041   -0.0034 N   0  0  0  0  0  0
    1.9465    0.6850    1.1862 C   0  0  0  0  0  0
    1.9476   -1.3726   -0.0025 N   0  3  0  0  0  0
   -0.3797    1.0180   -0.0068 H   0  0  0  0  0  0
   -0.3884   -0.5108    0.8804 H   0  0  0  0  0  0
   -0.3750   -0.5062   -0.8892 H   0  0  0  0  0  0
    1.5989    1.7186    1.2033 H   0  0  0  0  0  0
    3.0370    0.7021    1.1977 H   0  0  0  0  0  0
    1.6000    0.1933    2.0965 H   0  0  0  0  0  0
    2.9568   -1.3319   -0.0031 H   0  0  0  0  0  0
    1.5929   -1.8149   -0.8384 H   0  0  0  0  0  0
    1.5929   -1.8159    0.8329 H   0  0  0  0  0  0
  1  2  1  0  0  0
  1  5  1  0  0  0
  1  6  1  0  0  0
  1  7  1  0  0  0
  2  3  1  0  0  0
  2  4  1  0  0  0
  3  8  1  0  0  0
  3  9  1  0  0  0
  3 10  1  0  0  0
  4 11  1  0  0  0
  4 12  1  0  0  0
  4 13  1  0  0  0
M  CHG  1   4   1
M  END
> <s_m_entry_id>
59

> <s_m_entry_name>
biosynth_p1.0.sdf.52

> <s_m_Source_Path>
/Users/Sebastito/Downloads

> <s_m_Source_File>
biosynth_p1.0.sdf.gz

> <i_m_Source_File_Index>
52

> <chiral flag>
0

> <version>
0

> <i_m_ct_enhanced_stereo_status>
0

> <s_m_source_file>
ligprep_vs.maegz

> <i_m_source_file_index>
52

> <i_lp_mmshare_version>
37011

> <r_epik_Ionization_Penalty>
0.51384

> <r_epik_Ionization_Penalty_Charging>
0.51384

> <r_epik_Ionization_Penalty_Neutral>
4.78275e-11

> <r_epik_State_Penalty>
1.13385

> <r_epik_Charging_Adjusted_Penalty>
1.64769

> <i_epik_Tot_Q>
1

> <i_epik_Tot_abs_Q>
1

> <i_f3d_flags>
0

> <s_lp_Force_Field>
OPLS_2005

> <r_lp_Energy>
6.10088

> <b_lp_Chiralities_Consistent>
1

> <s_lp_Variant>
ZINC59447665-3

$$$$
ZINC21985895
                    3D
 Structure written by MMmdl.
 51 53  0  0  1  0            999 V2000
   -0.7952   -2.4538   -1.1237 C   0  0  0  0  0  0
   -1.0636   -1.4600    0.0176 C   0  0  2  0  0  0
   -0.9120   -1.9728    0.9678 H   0  0  0  0  0  0
   -2.4708   -0.8311   -0.0042 C   0  0  2  0  0  0
   -3.0678   -1.0605    0.8821 H   0  0  0  0  0  0
   -3.3463   -0.6057   -1.2618 C   0  0  2  0  0  0
   -2.7890   -0.7922   -2.1812 H   0  0  0  0  0  0
   -3.3011    0.8919   -0.8407 C   0  0  0  0  0  0
   -3.9603    1.8979   -0.9906 O   0  0  0  0  0  0
   -2.1951    0.5960   -0.0695 N   0  0  0  0  0  0
   -0.8351    0.8933   -0.0606 C   0  0  0  0  0  0
   -0.1510   -0.2569   -0.0050 C   0  0  0  0  0  0
    1.6078   -0.4710    0.0073 S   0  0  0  0  0  0
    1.9461   -0.9464    1.7245 C   0  0  2  0  0  0
    1.5427   -1.9446    1.8997 H   0  0  0  0  0  0
    1.3468    0.0216    2.7546 C   0  0  0  0  0  0
    2.4013    0.1678    3.8667 C   0  0  2  0  0  0
    2.7862    1.1887    3.8348 H   0  0  0  0  0  0
    3.5011   -0.7450    3.4981 N   0  3  0  0  0  0
    3.4377   -0.9454    2.0443 C   0  0  0  0  0  0
    1.8548   -0.1448    5.2680 C   0  0  0  0  0  0
    2.7932    0.2990    6.2969 N   0  0  0  0  0  0
    2.4997   -0.1931    7.9199 S   0  0  0  0  0  0
    1.2504    0.4338    8.3765 O   0  0  0  0  0  0
    2.7016   -1.6469    8.0080 O   0  0  0  0  0  0
    3.8243    0.5934    8.6821 N   0  0  0  0  0  0
   -0.3055    2.3716   -0.1513 C   0  0  0  0  0  0
    0.9275    2.5398   -0.0292 O   0  0  0  0  0  0
   -1.1668    3.2623   -0.3184 O   0  5  0  0  0  0
   -4.7619   -1.1857   -1.3188 C   0  0  1  0  0  0
   -5.3070   -0.9501   -0.4036 H   0  0  0  0  0  0
   -5.5752   -0.6955   -2.5269 C   0  0  0  0  0  0
   -4.6580   -2.5922   -1.4045 O   0  0  0  0  0  0
    0.1774   -2.9321   -1.0074 H   0  0  0  0  0  0
   -0.8043   -1.9626   -2.0968 H   0  0  0  0  0  0
   -1.5482   -3.2420   -1.1375 H   0  0  0  0  0  0
    1.1518    1.0007    2.3157 H   0  0  0  0  0  0
    0.3933   -0.3557    3.1265 H   0  0  0  0  0  0
    3.9380   -1.8648    1.7393 H   0  0  0  0  0  0
    3.9361   -0.1059    1.5570 H   0  0  0  0  0  0
    0.9090    0.3743    5.4273 H   0  0  0  0  0  0
    1.6573   -1.2118    5.3804 H   0  0  0  0  0  0
    4.2390    1.3022    8.0785 H   0  0  0  0  0  0
    4.5235   -0.0792    8.9966 H   0  0  0  0  0  0
   -5.7283    0.3832   -2.4941 H   0  0  0  0  0  0
   -6.5606   -1.1618   -2.5507 H   0  0  0  0  0  0
   -5.0728   -0.9302   -3.4658 H   0  0  0  0  0  0
   -4.1872   -2.8100   -2.1944 H   0  0  0  0  0  0
    4.3978   -0.3813    3.7871 H   0  0  0  0  0  0
    2.9884    1.2983    6.2356 H   0  0  0  0  0  0
    3.3343   -1.6353    3.9449 H   0  0  0  0  0  0
  1  2  1  0  0  0
  1 34  1  0  0  0
  1 35  1  0  0  0
  1 36  1  0  0  0
  2  3  1  0  0  0
  2 12  1  0  0  0
  2  4  1  0  0  0
  4  5  1  0  0  0
  4 10  1  0  0  0
  4  6  1  0  0  0
  6  7  1  0  0  0
  6  8  1  0  0  0
  6 30  1  0  0  0
  8  9  2  0  0  0
  8 10  1  0  0  0
 10 11  1  0  0  0
 11 12  2  0  0  0
 11 27  1  0  0  0
 12 13  1  0  0  0
 13 14  1  0  0  0
 14 15  1  0  0  0
 14 20  1  0  0  0
 14 16  1  0  0  0
 16 17  1  0  0  0
 16 37  1  0  0  0
 16 38  1  0  0  0
 17 18  1  0  0  0
 17 19  1  0  0  0
 17 21  1  0  0  0
 19 20  1  0  0  0
 19 49  1  0  0  0
 19 51  1  0  0  0
 20 39  1  0  0  0
 20 40  1  0  0  0
 21 22  1  0  0  0
 21 41  1  0  0  0
 21 42  1  0  0  0
 22 23  1  0  0  0
 22 50  1  0  0  0
 23 24  2  0  0  0
 23 25  2  0  0  0
 23 26  1  0  0  0
 26 43  1  0  0  0
 26 44  1  0  0  0
 27 28  2  0  0  0
 27 29  1  0  0  0
 30 31  1  0  0  0
 30 32  1  0  0  0
 30 33  1  0  0  0
 32 45  1  0  0  0
 32 46  1  0  0  0
 32 47  1  0  0  0
 33 48  1  0  0  0
M  CHG  2  19   1  29  -1
M  END
> <s_m_entry_id>
60

> <s_m_entry_name>
biosynth_p1.0.sdf.53

> <s_m_Source_Path>
/Users/Sebastito/Downloads

> <s_m_Source_File>
biosynth_p1.0.sdf.gz

> <i_m_Source_File_Index>
53

> <chiral flag>
1

> <version>
0

> <i_m_ct_enhanced_stereo_status>
0

> <s_m_source_file>
ligprep_vs.maegz

> <i_m_source_file_index>
53

> <i_lp_mmshare_version>
37011

> <r_epik_Ionization_Penalty>
0.40777

> <r_epik_Ionization_Penalty_Charging>
0.00374207

> <r_epik_Ionization_Penalty_Neutral>
0.404028

> <r_epik_State_Penalty>
0.399995

> <r_epik_Charging_Adjusted_Penalty>
0.403737

> <i_epik_Tot_Q>
0

> <i_epik_Tot_abs_Q>
2

> <i_f3d_flags>
0

> <s_lp_Force_Field>
OPLS_2005

> <r_lp_Energy>
48.9502

> <b_lp_Chiralities_Consistent>
1

> <s_lp_Variant>
ZINC21985895-1

$$$$
ZINC21985895
                    3D
 Structure written by MMmdl.
 50 52  0  0  1  0            999 V2000
   -0.6656   -2.2777   -0.1232 C   0  0  0  0  0  0
   -0.7563   -0.8280    0.3821 C   0  0  2  0  0  0
   -0.5689   -0.8197    1.4559 H   0  0  0  0  0  0
   -2.1124   -0.1489    0.1040 C   0  0  2  0  0  0
   -2.6168    0.2078    1.0055 H   0  0  0  0  0  0
   -3.1079   -0.5209   -1.0232 C   0  0  2  0  0  0
   -2.6802   -1.2435   -1.7197 H   0  0  0  0  0  0
   -2.8954    0.9467   -1.4962 C   0  0  0  0  0  0
   -3.4734    1.7787   -2.1618 O   0  0  0  0  0  0
   -1.7449    0.9797   -0.7344 N   0  0  0  0  0  0
   -0.3723    1.1064   -0.9235 C   0  0  0  0  0  0
    0.2376    0.0998   -0.2827 C   0  0  0  0  0  0
    1.9810   -0.2345   -0.2257 S   0  0  0  0  0  0
    2.3023   -0.7519    1.4891 C   0  0  2  0  0  0
    1.7138   -1.6426    1.7062 H   0  0  0  0  0  0
    2.0189    0.3708    2.4900 C   0  0  0  0  0  0
    3.3097    1.2103    2.4521 C   0  0  2  0  0  0
    3.2298    1.8808    1.5953 H   0  0  0  0  0  0
    4.3954    0.2672    2.1205 N   0  3  0  0  0  0
    3.7961   -1.0165    1.7046 C   0  0  0  0  0  0
    3.6165    2.0792    3.6956 C   0  0  0  0  0  0
    3.8397    1.2614    4.8821 N   0  5  0  0  0  0
    5.3494    0.9610    5.3868 S   0  0  0  0  0  0
    6.0830    0.0088    4.5379 O   0  0  0  0  0  0
    6.0640    2.1538    5.8678 O   0  0  0  0  0  0
    4.8984    0.0849    6.7918 N   0  0  0  0  0  0
    0.2407    2.2595   -1.8008 C   0  0  0  0  0  0
    1.4871    2.3055   -1.8891 O   0  0  0  0  0  0
   -0.5735    3.0469   -2.3310 O   0  5  0  0  0  0
   -4.5619   -0.8496   -0.6761 C   0  0  1  0  0  0
   -4.9796   -0.0845   -0.0199 H   0  0  0  0  0  0
   -5.4655   -0.9990   -1.9099 C   0  0  0  0  0  0
   -4.5790   -2.0745    0.0278 O   0  0  0  0  0  0
    0.2748   -2.7438    0.1690 H   0  0  0  0  0  0
   -0.7279   -2.3287   -1.2101 H   0  0  0  0  0  0
   -1.4725   -2.8839    0.2888 H   0  0  0  0  0  0
    1.1301    0.9547    2.2469 H   0  0  0  0  0  0
    1.8502   -0.0814    3.4699 H   0  0  0  0  0  0
    3.9314   -1.7265    2.5212 H   0  0  0  0  0  0
    4.2916   -1.4262    0.8241 H   0  0  0  0  0  0
    4.4730    2.7179    3.4770 H   0  0  0  0  0  0
    2.7812    2.7624    3.8480 H   0  0  0  0  0  0
    3.9068   -0.1506    6.7654 H   0  0  0  0  0  0
    5.1181    0.6148    7.6346 H   0  0  0  0  0  0
   -5.5265   -0.0690   -2.4750 H   0  0  0  0  0  0
   -6.4811   -1.2707   -1.6208 H   0  0  0  0  0  0
   -5.0930   -1.7721   -2.5828 H   0  0  0  0  0  0
   -4.0566   -1.9780    0.8094 H   0  0  0  0  0  0
    4.9625    0.6561    1.3816 H   0  0  0  0  0  0
    4.9622    0.1165    2.9442 H   0  0  0  0  0  0
  1  2  1  0  0  0
  1 34  1  0  0  0
  1 35  1  0  0  0
  1 36  1  0  0  0
  2  3  1  0  0  0
  2 12  1  0  0  0
  2  4  1  0  0  0
  4  5  1  0  0  0
  4 10  1  0  0  0
  4  6  1  0  0  0
  6  7  1  0  0  0
  6  8  1  0  0  0
  6 30  1  0  0  0
  8  9  2  0  0  0
  8 10  1  0  0  0
 10 11  1  0  0  0
 11 12  2  0  0  0
 11 27  1  0  0  0
 12 13  1  0  0  0
 13 14  1  0  0  0
 14 15  1  0  0  0
 14 20  1  0  0  0
 14 16  1  0  0  0
 16 17  1  0  0  0
 16 37  1  0  0  0
 16 38  1  0  0  0
 17 18  1  0  0  0
 17 19  1  0  0  0
 17 21  1  0  0  0
 19 20  1  0  0  0
 19 49  1  0  0  0
 19 50  1  0  0  0
 20 39  1  0  0  0
 20 40  1  0  0  0
 21 22  1  0  0  0
 21 41  1  0  0  0
 21 42  1  0  0  0
 22 23  1  0  0  0
 23 24  2  0  0  0
 23 25  2  0  0  0
 23 26  1  0  0  0
 26 43  1  0  0  0
 26 44  1  0  0  0
 27 28  2  0  0  0
 27 29  1  0  0  0
 30 31  1  0  0  0
 30 32  1  0  0  0
 30 33  1  0  0  0
 32 45  1  0  0  0
 32 46  1  0  0  0
 32 47  1  0  0  0
 33 48  1  0  0  0
M  CHG  3  19   1  22  -1  29  -1
M  END
> <s_m_entry_id>
60

> <s_m_entry_name>
biosynth_p1.0.sdf.53

> <s_m_Source_Path>
/Users/Sebastito/Downloads

> <s_m_Source_File>
biosynth_p1.0.sdf.gz

> <i_m_Source_File_Index>
53

> <chiral flag>
1

> <version>
0

> <i_m_ct_enhanced_stereo_status>
0

> <s_m_source_file>
ligprep_vs.maegz

> <i_m_source_file_index>
53

> <i_lp_mmshare_version>
37011

> <r_epik_Ionization_Penalty>
0.422596

> <r_epik_Ionization_Penalty_Charging>
0.421285

> <r_epik_Ionization_Penalty_Neutral>
0.00131108

> <r_epik_State_Penalty>
0.421561

> <r_epik_Charging_Adjusted_Penalty>
0.842846

> <i_epik_Tot_Q>
-1

> <i_epik_Tot_abs_Q>
3

> <i_f3d_flags>
0

> <s_lp_Force_Field>
OPLS_2005

> <r_lp_Energy>
39.7752

> <b_lp_Chiralities_Consistent>
1

> <s_lp_Variant>
ZINC21985895-2

$$$$
ZINC19701769
                    3D
 Structure written by MMmdl.
 55 58  0  0  1  0            999 V2000
    0.5068   -0.1005   -5.6309 C   0  0  0  0  0  0
   -0.3679    0.9396   -4.8749 C   0  0  1  0  0  0
   -1.3968    1.6084   -5.8196 C   0  0  0  0  0  0
   -0.9857    2.1893   -7.0596 C   0  0  0  0  0  0
   -1.9344    2.5809   -8.0157 C   0  0  0  0  0  0
   -3.2976    2.4203   -7.7589 C   0  0  0  0  0  0
   -3.7266    1.9776   -6.4987 C   0  0  0  0  0  0
   -2.7815    1.6641   -5.4674 C   0  0  0  0  0  0
   -3.1907    1.4131   -4.0468 C   0  0  0  0  0  0
   -4.2545    2.0024   -3.7417 O   0  5  0  0  0  0
   -2.3511    0.7019   -3.2084 C   0  0  1  0  0  0
   -2.6665    0.4193   -1.7815 C   0  0  0  0  0  0
   -2.1465   -0.9294   -1.2235 C   0  0  1  0  0  0
   -0.5901   -0.8608   -1.2411 C   0  0  1  0  0  0
   -0.2270   -1.8884   -1.2872 H   0  0  0  0  0  0
   -0.0232   -0.0937   -2.4819 C   0  0  0  0  0  0
   -1.0049    0.1537   -3.6736 C   0  0  2  0  0  0
   -1.2767   -0.8261   -4.0681 H   0  0  0  0  0  0
   -0.0308   -0.1980    0.0414 C   0  0  1  0  0  0
   -0.4120    0.8240    0.0579 H   0  0  0  0  0  0
   -0.5541   -0.8865    1.3199 C   0  0  0  0  0  0
   -1.9941   -1.2601    1.3435 C   0  0  0  0  0  0
   -2.7757   -1.2696    0.1722 C   0  0  0  0  0  0
   -3.9915   -1.5449   -0.0069 O   0  5  0  0  0  0
   -2.5895   -1.5995    2.6563 C   0  0  0  0  0  0
   -2.1797   -1.1998    3.7463 O   0  0  0  0  0  0
   -3.6189   -2.4526    2.6223 N   0  0  0  0  0  0
    0.1839   -1.0742    2.2898 O   0  0  0  0  0  0
    1.4666   -0.0886    0.0110 N   0  3  0  0  0  0
    2.2445   -1.3529    0.0813 C   0  0  0  0  0  0
    2.0166    0.9821    0.8750 C   0  0  0  0  0  0
   -2.4981   -1.9674   -2.1351 O   0  0  0  0  0  0
   -3.2431    1.2227   -1.0465 O   0  0  0  0  0  0
   -5.0810    1.8611   -6.3411 O   0  0  0  0  0  0
    0.6638    2.5235   -7.4662 Cl  0  0  0  0  0  0
    0.4944    1.9340   -4.3540 O   0  0  0  0  0  0
   -0.1188   -0.8415   -6.1298 H   0  0  0  0  0  0
    1.1687   -0.6464   -4.9615 H   0  0  0  0  0  0
    1.1661    0.3151   -6.3841 H   0  0  0  0  0  0
   -1.6133    2.9922   -8.9614 H   0  0  0  0  0  0
   -4.0187    2.6803   -8.5201 H   0  0  0  0  0  0
    0.3051    0.8880   -2.1401 H   0  0  0  0  0  0
    0.8825   -0.5982   -2.8142 H   0  0  0  0  0  0
   -3.9669   -2.7737    1.7295 H   0  0  0  0  0  0
   -4.0642   -2.7422    3.4804 H   0  0  0  0  0  0
    2.2491   -1.7881    1.0797 H   0  0  0  0  0  0
    3.2824   -1.1594   -0.1902 H   0  0  0  0  0  0
    1.8692   -2.1009   -0.6150 H   0  0  0  0  0  0
    1.9560    0.7290    1.9330 H   0  0  0  0  0  0
    1.4823    1.9191    0.7157 H   0  0  0  0  0  0
    3.0653    1.1582    0.6344 H   0  0  0  0  0  0
   -3.4399   -2.0510   -2.1194 H   0  0  0  0  0  0
   -5.5694    2.1226   -7.1056 H   0  0  0  0  0  0
   -0.0264    2.5285   -3.8352 H   0  0  0  0  0  0
    1.6440    0.2513   -0.9233 H   0  0  0  0  0  0
  1  2  1  0  0  0
  1 37  1  0  0  0
  1 38  1  0  0  0
  1 39  1  0  0  0
  2 17  1  0  0  0
  2  3  1  0  0  0
  2 36  1  0  0  0
  3  8  2  0  0  0
  3  4  1  0  0  0
  4  5  2  0  0  0
  4 35  1  0  0  0
  5  6  1  0  0  0
  5 40  1  0  0  0
  6  7  2  0  0  0
  6 41  1  0  0  0
  7  8  1  0  0  0
  7 34  1  0  0  0
  8  9  1  0  0  0
  9 10  1  0  0  0
  9 11  2  0  0  0
 11 17  1  0  0  0
 11 12  1  0  0  0
 12 13  1  0  0  0
 12 33  2  0  0  0
 13 14  1  0  0  0
 13 32  1  0  0  0
 13 23  1  0  0  0
 14 15  1  0  0  0
 14 16  1  0  0  0
 14 19  1  0  0  0
 16 17  1  0  0  0
 16 42  1  0  0  0
 16 43  1  0  0  0
 17 18  1  0  0  0
 19 20  1  0  0  0
 19 29  1  0  0  0
 19 21  1  0  0  0
 21 22  1  0  0  0
 21 28  2  0  0  0
 22 25  1  0  0  0
 22 23  2  0  0  0
 23 24  1  0  0  0
 25 26  2  0  0  0
 25 27  1  0  0  0
 27 44  1  0  0  0
 27 45  1  0  0  0
 29 30  1  0  0  0
 29 31  1  0  0  0
 29 55  1  0  0  0
 30 46  1  0  0  0
 30 47  1  0  0  0
 30 48  1  0  0  0
 31 49  1  0  0  0
 31 50  1  0  0  0
 31 51  1  0  0  0
 32 52  1  0  0  0
 34 53  1  0  0  0
 36 54  1  0  0  0
M  CHG  3  10  -1  24  -1  29   1
M  END
> <s_m_entry_id>
61

> <s_m_entry_name>
biosynth_p1.0.sdf.54

> <s_m_Source_Path>
/Users/Sebastito/Downloads

> <s_m_Source_File>
biosynth_p1.0.sdf.gz

> <i_m_Source_File_Index>
54

> <chiral flag>
1

> <version>
0

> <i_m_ct_enhanced_stereo_status>
0

> <s_m_source_file>
ligprep_vs.maegz

> <i_m_source_file_index>
54

> <i_lp_mmshare_version>
37011

> <r_epik_Ionization_Penalty>
0.0278475

> <r_epik_Ionization_Penalty_Charging>
0.0277848

> <r_epik_Ionization_Penalty_Neutral>
6.27066e-05

> <r_epik_State_Penalty>
0.020402

> <r_epik_Charging_Adjusted_Penalty>
0.0481868

> <i_epik_Tot_Q>
-1

> <i_epik_Tot_abs_Q>
3

> <i_f3d_flags>
0

> <s_lp_Force_Field>
OPLS_2005

> <r_lp_Energy>
68.1827

> <b_lp_Chiralities_Consistent>
1

> <s_lp_Variant>
ZINC19701769-1

$$$$
ZINC19701769
                    3D
 Structure written by MMmdl.
 54 57  0  0  1  0            999 V2000
    0.4973    4.9276    2.7230 C   0  0  0  0  0  0
   -0.3774    3.7569    3.2545 C   0  0  1  0  0  0
   -1.4076    4.2476    4.3019 C   0  0  0  0  0  0
   -0.9975    5.0396    5.4194 C   0  0  0  0  0  0
   -1.9467    5.6774    6.2316 C   0  0  0  0  0  0
   -3.3096    5.5321    5.9653 C   0  0  0  0  0  0
   -3.7382    4.6549    4.9581 C   0  0  0  0  0  0
   -2.7926    3.9139    4.1756 C   0  0  0  0  0  0
   -3.2012    2.8030    3.2552 C   0  0  0  0  0  0
   -4.2658    2.2470    3.6157 O   0  5  0  0  0  0
   -2.3601    2.4260    2.2239 C   0  0  1  0  0  0
   -2.6676    1.3227    1.2732 C   0  0  0  0  0  0
   -2.1540    1.5149   -0.1782 C   0  0  1  0  0  0
   -0.5909    1.5172   -0.1272 C   0  0  1  0  0  0
   -0.2436    2.1121   -0.9730 H   0  0  0  0  0  0
   -0.0364    2.1761    1.1820 C   0  0  0  0  0  0
   -1.0135    3.1000    1.9782 C   0  0  2  0  0  0
   -1.2795    3.9255    1.3170 H   0  0  0  0  0  0
    0.0108    0.0907   -0.2585 C   0  0  1  0  0  0
   -0.3781   -0.4668    0.5945 H   0  0  0  0  0  0
   -0.5412   -0.6267   -1.5119 C   0  0  0  0  0  0
   -1.9974   -0.5064   -1.7873 C   0  0  0  0  0  0
   -2.7881    0.4763   -1.1656 C   0  0  0  0  0  0
   -4.0170    0.7349   -1.2707 O   0  5  0  0  0  0
   -2.5935   -1.4730   -2.7370 C   0  0  0  0  0  0
   -2.1614   -2.6032   -2.9654 O   0  0  0  0  0  0
   -3.6513   -1.0296   -3.4246 N   0  0  0  0  0  0
    0.1983   -1.2990   -2.2341 O   0  0  0  0  0  0
    1.4995    0.1124   -0.0992 N   0  0  0  0  0  0
    2.2627    0.7076   -1.1970 C   0  0  0  0  0  0
    2.0521   -1.1912    0.2580 C   0  0  0  0  0  0
   -2.5285    2.8181   -0.6186 O   0  0  0  0  0  0
   -3.2384    0.2834    1.6093 O   0  0  0  0  0  0
   -5.0927    4.5749    4.7799 O   0  0  0  0  0  0
    0.6514    5.2290    5.9117 Cl  0  0  0  0  0  0
    0.4866    2.8139    3.8610 O   0  0  0  0  0  0
   -0.1280    5.7278    2.3256 H   0  0  0  0  0  0
    1.1571    4.6140    1.9163 H   0  0  0  0  0  0
    1.1586    5.3755    3.4557 H   0  0  0  0  0  0
   -1.6264    6.2973    7.0562 H   0  0  0  0  0  0
   -4.0309    6.0649    6.5676 H   0  0  0  0  0  0
    0.2506    1.3715    1.8598 H   0  0  0  0  0  0
    0.8906    2.6938    0.9420 H   0  0  0  0  0  0
   -4.0136   -0.1063   -3.2306 H   0  0  0  0  0  0
   -4.0985   -1.6250   -4.1050 H   0  0  0  0  0  0
    3.3052    0.8280   -0.9009 H   0  0  0  0  0  0
    1.8930    1.7001   -1.4500 H   0  0  0  0  0  0
    2.2530    0.1009   -2.1015 H   0  0  0  0  0  0
    3.1005   -1.0930    0.5412 H   0  0  0  0  0  0
    1.9958   -1.9106   -0.5584 H   0  0  0  0  0  0
    1.5242   -1.6084    1.1162 H   0  0  0  0  0  0
   -3.4710    2.8307   -0.6912 H   0  0  0  0  0  0
   -5.5809    5.1086    5.3866 H   0  0  0  0  0  0
   -0.0189    2.0398    4.0583 H   0  0  0  0  0  0
  1  2  1  0  0  0
  1 37  1  0  0  0
  1 38  1  0  0  0
  1 39  1  0  0  0
  2 17  1  0  0  0
  2  3  1  0  0  0
  2 36  1  0  0  0
  3  8  2  0  0  0
  3  4  1  0  0  0
  4  5  2  0  0  0
  4 35  1  0  0  0
  5  6  1  0  0  0
  5 40  1  0  0  0
  6  7  2  0  0  0
  6 41  1  0  0  0
  7  8  1  0  0  0
  7 34  1  0  0  0
  8  9  1  0  0  0
  9 10  1  0  0  0
  9 11  2  0  0  0
 11 17  1  0  0  0
 11 12  1  0  0  0
 12 13  1  0  0  0
 12 33  2  0  0  0
 13 14  1  0  0  0
 13 32  1  0  0  0
 13 23  1  0  0  0
 14 15  1  0  0  0
 14 16  1  0  0  0
 14 19  1  0  0  0
 16 17  1  0  0  0
 16 42  1  0  0  0
 16 43  1  0  0  0
 17 18  1  0  0  0
 19 20  1  0  0  0
 19 29  1  0  0  0
 19 21  1  0  0  0
 21 22  1  0  0  0
 21 28  2  0  0  0
 22 25  1  0  0  0
 22 23  2  0  0  0
 23 24  1  0  0  0
 25 26  2  0  0  0
 25 27  1  0  0  0
 27 44  1  0  0  0
 27 45  1  0  0  0
 29 30  1  0  0  0
 29 31  1  0  0  0
 30 46  1  0  0  0
 30 47  1  0  0  0
 30 48  1  0  0  0
 31 49  1  0  0  0
 31 50  1  0  0  0
 31 51  1  0  0  0
 32 52  1  0  0  0
 34 53  1  0  0  0
 36 54  1  0  0  0
M  CHG  2  10  -1  24  -1
M  END
> <s_m_entry_id>
61

> <s_m_entry_name>
biosynth_p1.0.sdf.54

> <s_m_Source_Path>
/Users/Sebastito/Downloads

> <s_m_Source_File>
biosynth_p1.0.sdf.gz

> <i_m_Source_File_Index>
54

> <chiral flag>
1

> <version>
0

> <i_m_ct_enhanced_stereo_status>
0

> <s_m_source_file>
ligprep_vs.maegz

> <i_m_source_file_index>
54

> <i_lp_mmshare_version>
37011

> <r_epik_Ionization_Penalty>
2.1639

> <r_epik_Ionization_Penalty_Charging>
0.0192843

> <r_epik_Ionization_Penalty_Neutral>
2.14462

> <r_epik_State_Penalty>
2.29159

> <r_epik_Charging_Adjusted_Penalty>
2.31088

> <i_epik_Tot_Q>
-2

> <i_epik_Tot_abs_Q>
2

> <i_f3d_flags>
0

> <s_lp_Force_Field>
OPLS_2005

> <r_lp_Energy>
80.4374

> <b_lp_Chiralities_Consistent>
1

> <s_lp_Variant>
ZINC19701769-2

$$$$
ZINC19701769
                    3D
 Structure written by MMmdl.
 56 59  0  0  1  0            999 V2000
   -3.8114   -0.6164   -5.1794 C   0  0  0  0  0  0
   -3.8721   -0.8396   -3.6524 C   0  0  1  0  0  0
   -4.8113   -2.0445   -3.3907 C   0  0  0  0  0  0
   -6.2330   -1.8975   -3.4284 C   0  0  0  0  0  0
   -7.0712   -2.9960   -3.1827 C   0  0  0  0  0  0
   -6.5283   -4.2546   -2.9113 C   0  0  0  0  0  0
   -5.1373   -4.4381   -2.9087 C   0  0  0  0  0  0
   -4.2553   -3.3470   -3.1789 C   0  0  0  0  0  0
   -2.7727   -3.5048   -3.1900 C   0  0  0  0  0  0
   -2.2807   -4.7539   -3.2445 O   0  0  0  0  0  0
   -1.9492   -2.4424   -3.1429 C   0  0  1  0  0  0
   -0.4979   -2.5687   -2.9717 C   0  0  0  0  0  0
    0.0624   -2.0191   -1.6269 C   0  0  1  0  0  0
   -0.5758   -0.6060   -1.3464 C   0  0  1  0  0  0
   -0.1052    0.1060   -2.0236 H   0  0  0  0  0  0
   -2.0989   -0.4894   -1.6934 C   0  0  0  0  0  0
   -2.4140   -1.0118   -3.1120 C   0  0  2  0  0  0
   -1.7627   -0.4368   -3.7742 H   0  0  0  0  0  0
   -0.3399   -0.1414    0.1136 C   0  0  1  0  0  0
   -0.8474    0.8131    0.2596 H   0  0  0  0  0  0
   -0.9809   -1.1804    1.0471 C   0  0  0  0  0  0
   -0.7097   -2.6177    0.7673 C   0  0  0  0  0  0
   -0.1513   -3.0403   -0.4550 C   0  0  0  0  0  0
    0.2534   -4.1727   -0.8255 O   0  5  0  0  0  0
   -0.9761   -3.5819    1.8540 C   0  0  0  0  0  0
   -0.9689   -3.3139    3.0554 O   0  0  0  0  0  0
   -1.3041   -4.8160    1.4553 N   0  0  0  0  0  0
   -1.6802   -0.7937    1.9847 O   0  0  0  0  0  0
    1.1001    0.0733    0.4844 N   0  3  0  0  0  0
    1.7637    1.1110   -0.3440 C   0  0  0  0  0  0
    1.3345    0.3648    1.9247 C   0  0  0  0  0  0
    1.4600   -1.8271   -1.7875 O   0  0  0  0  0  0
    0.2376   -3.0760   -3.8205 O   0  0  0  0  0  0
   -4.7025   -5.7010   -2.6188 O   0  0  0  0  0  0
   -7.0414   -0.4139   -3.8111 Cl  0  0  0  0  0  0
   -4.3417    0.3875   -3.1246 O   0  0  0  0  0  0
   -3.4028   -1.4906   -5.6880 H   0  0  0  0  0  0
   -3.1843    0.2369   -5.4419 H   0  0  0  0  0  0
   -4.7980   -0.4276   -5.6031 H   0  0  0  0  0  0
   -8.1442   -2.8733   -3.2054 H   0  0  0  0  0  0
   -7.1879   -5.0866   -2.7111 H   0  0  0  0  0  0
   -2.7188   -1.0403   -0.9854 H   0  0  0  0  0  0
   -2.3814    0.5587   -1.5930 H   0  0  0  0  0  0
   -1.3070   -5.0374    0.4695 H   0  0  0  0  0  0
   -1.5227   -5.5256    2.1391 H   0  0  0  0  0  0
    1.2390    2.0640   -0.2669 H   0  0  0  0  0  0
    1.8183    0.8328   -1.3946 H   0  0  0  0  0  0
    2.7934    1.2671   -0.0206 H   0  0  0  0  0  0
    0.7496    1.2273    2.2467 H   0  0  0  0  0  0
    2.3864    0.5822    2.1129 H   0  0  0  0  0  0
    1.0841   -0.4816    2.5645 H   0  0  0  0  0  0
    1.8506   -2.6755   -1.9386 H   0  0  0  0  0  0
   -5.4069   -6.3087   -2.4541 H   0  0  0  0  0  0
   -4.3841    0.3125   -2.1836 H   0  0  0  0  0  0
    1.5753   -0.7975    0.2911 H   0  0  0  0  0  0
   -1.3374   -4.6905   -3.2334 H   0  0  0  0  0  0
  1  2  1  0  0  0
  1 37  1  0  0  0
  1 38  1  0  0  0
  1 39  1  0  0  0
  2 17  1  0  0  0
  2  3  1  0  0  0
  2 36  1  0  0  0
  3  8  2  0  0  0
  3  4  1  0  0  0
  4  5  2  0  0  0
  4 35  1  0  0  0
  5  6  1  0  0  0
  5 40  1  0  0  0
  6  7  2  0  0  0
  6 41  1  0  0  0
  7  8  1  0  0  0
  7 34  1  0  0  0
  8  9  1  0  0  0
  9 10  1  0  0  0
  9 11  2  0  0  0
 10 56  1  0  0  0
 11 17  1  0  0  0
 11 12  1  0  0  0
 12 13  1  0  0  0
 12 33  2  0  0  0
 13 14  1  0  0  0
 13 32  1  0  0  0
 13 23  1  0  0  0
 14 15  1  0  0  0
 14 16  1  0  0  0
 14 19  1  0  0  0
 16 17  1  0  0  0
 16 42  1  0  0  0
 16 43  1  0  0  0
 17 18  1  0  0  0
 19 20  1  0  0  0
 19 29  1  0  0  0
 19 21  1  0  0  0
 21 22  1  0  0  0
 21 28  2  0  0  0
 22 25  1  0  0  0
 22 23  2  0  0  0
 23 24  1  0  0  0
 25 26  2  0  0  0
 25 27  1  0  0  0
 27 44  1  0  0  0
 27 45  1  0  0  0
 29 30  1  0  0  0
 29 31  1  0  0  0
 29 55  1  0  0  0
 30 46  1  0  0  0
 30 47  1  0  0  0
 30 48  1  0  0  0
 31 49  1  0  0  0
 31 50  1  0  0  0
 31 51  1  0  0  0
 32 52  1  0  0  0
 34 53  1  0  0  0
 36 54  1  0  0  0
M  CHG  2  24  -1  29   1
M  END
> <s_m_entry_id>
61

> <s_m_entry_name>
biosynth_p1.0.sdf.54

> <s_m_Source_Path>
/Users/Sebastito/Downloads

> <s_m_Source_File>
biosynth_p1.0.sdf.gz

> <i_m_Source_File_Index>
54

> <chiral flag>
1

> <version>
0

> <i_m_ct_enhanced_stereo_status>
0

> <s_m_source_file>
ligprep_vs.maegz

> <i_m_source_file_index>
54

> <i_lp_mmshare_version>
37011

> <r_epik_Ionization_Penalty>
2.46344

> <r_epik_Ionization_Penalty_Charging>
0.0496299

> <r_epik_Ionization_Penalty_Neutral>
2.41381

> <r_epik_State_Penalty>
2.57564

> <r_epik_Charging_Adjusted_Penalty>
2.62527

> <i_epik_Tot_Q>
0

> <i_epik_Tot_abs_Q>
2

> <i_f3d_flags>
0

> <s_lp_Force_Field>
OPLS_2005

> <r_lp_Energy>
55.3525

> <b_lp_Chiralities_Consistent>
1

> <s_lp_Variant>
ZINC19701769-3

$$$$
ZINC19701769
                    3D
 Structure written by MMmdl.
 55 58  0  0  1  0            999 V2000
    0.5068   -0.1005   -5.6309 C   0  0  0  0  0  0
   -0.3679    0.9396   -4.8749 C   0  0  1  0  0  0
   -1.3968    1.6084   -5.8196 C   0  0  0  0  0  0
   -0.9857    2.1893   -7.0596 C   0  0  0  0  0  0
   -1.9344    2.5809   -8.0157 C   0  0  0  0  0  0
   -3.2976    2.4203   -7.7589 C   0  0  0  0  0  0
   -3.7266    1.9776   -6.4987 C   0  0  0  0  0  0
   -2.7815    1.6641   -5.4674 C   0  0  0  0  0  0
   -3.1907    1.4131   -4.0468 C   0  0  0  0  0  0
   -4.2545    2.0024   -3.7417 O   0  5  0  0  0  0
   -2.3511    0.7019   -3.2084 C   0  0  1  0  0  0
   -2.6665    0.4193   -1.7815 C   0  0  0  0  0  0
   -2.1465   -0.9294   -1.2235 C   0  0  1  0  0  0
   -0.5901   -0.8608   -1.2411 C   0  0  1  0  0  0
   -0.2270   -1.8884   -1.2872 H   0  0  0  0  0  0
   -0.0232   -0.0937   -2.4819 C   0  0  0  0  0  0
   -1.0049    0.1537   -3.6736 C   0  0  2  0  0  0
   -1.2767   -0.8261   -4.0681 H   0  0  0  0  0  0
   -0.0308   -0.1980    0.0414 C   0  0  1  0  0  0
   -0.4120    0.8240    0.0579 H   0  0  0  0  0  0
   -0.5541   -0.8865    1.3199 C   0  0  0  0  0  0
   -1.9941   -1.2601    1.3435 C   0  0  0  0  0  0
   -2.7757   -1.2696    0.1722 C   0  0  0  0  0  0
   -3.9915   -1.5449   -0.0069 O   0  5  0  0  0  0
   -2.5895   -1.5995    2.6563 C   0  0  0  0  0  0
   -2.1797   -1.1998    3.7463 O   0  0  0  0  0  0
   -3.6189   -2.4526    2.6223 N   0  0  0  0  0  0
    0.1839   -1.0742    2.2898 O   0  0  0  0  0  0
    1.4666   -0.0886    0.0110 N   0  3  0  0  0  0
    2.2445   -1.3529    0.0813 C   0  0  0  0  0  0
    2.0166    0.9821    0.8750 C   0  0  0  0  0  0
   -2.4981   -1.9674   -2.1351 O   0  0  0  0  0  0
   -3.2431    1.2227   -1.0465 O   0  0  0  0  0  0
   -5.0810    1.8611   -6.3411 O   0  0  0  0  0  0
    0.6638    2.5235   -7.4662 Cl  0  0  0  0  0  0
    0.4944    1.9340   -4.3540 O   0  0  0  0  0  0
   -0.1188   -0.8415   -6.1298 H   0  0  0  0  0  0
    1.1687   -0.6464   -4.9615 H   0  0  0  0  0  0
    1.1661    0.3151   -6.3841 H   0  0  0  0  0  0
   -1.6133    2.9922   -8.9614 H   0  0  0  0  0  0
   -4.0187    2.6803   -8.5201 H   0  0  0  0  0  0
    0.3051    0.8880   -2.1401 H   0  0  0  0  0  0
    0.8825   -0.5982   -2.8142 H   0  0  0  0  0  0
   -3.9669   -2.7737    1.7295 H   0  0  0  0  0  0
   -4.0642   -2.7422    3.4804 H   0  0  0  0  0  0
    2.2491   -1.7881    1.0797 H   0  0  0  0  0  0
    3.2824   -1.1594   -0.1902 H   0  0  0  0  0  0
    1.8692   -2.1009   -0.6150 H   0  0  0  0  0  0
    1.9560    0.7290    1.9330 H   0  0  0  0  0  0
    1.4823    1.9191    0.7157 H   0  0  0  0  0  0
    3.0653    1.1582    0.6344 H   0  0  0  0  0  0
   -3.4399   -2.0510   -2.1194 H   0  0  0  0  0  0
   -0.0264    2.5285   -3.8352 H   0  0  0  0  0  0
   -5.5694    2.1226   -7.1056 H   0  0  0  0  0  0
    1.6440    0.2513   -0.9233 H   0  0  0  0  0  0
  1  2  1  0  0  0
  1 37  1  0  0  0
  1 38  1  0  0  0
  1 39  1  0  0  0
  2 17  1  0  0  0
  2  3  1  0  0  0
  2 36  1  0  0  0
  3  8  2  0  0  0
  3  4  1  0  0  0
  4  5  2  0  0  0
  4 35  1  0  0  0
  5  6  1  0  0  0
  5 40  1  0  0  0
  6  7  2  0  0  0
  6 41  1  0  0  0
  7  8  1  0  0  0
  7 34  1  0  0  0
  8  9  1  0  0  0
  9 10  1  0  0  0
  9 11  2  0  0  0
 11 17  1  0  0  0
 11 12  1  0  0  0
 12 13  1  0  0  0
 12 33  2  0  0  0
 13 14  1  0  0  0
 13 32  1  0  0  0
 13 23  1  0  0  0
 14 15  1  0  0  0
 14 16  1  0  0  0
 14 19  1  0  0  0
 16 17  1  0  0  0
 16 42  1  0  0  0
 16 43  1  0  0  0
 17 18  1  0  0  0
 19 20  1  0  0  0
 19 29  1  0  0  0
 19 21  1  0  0  0
 21 22  1  0  0  0
 21 28  2  0  0  0
 22 25  1  0  0  0
 22 23  2  0  0  0
 23 24  1  0  0  0
 25 26  2  0  0  0
 25 27  1  0  0  0
 27 44  1  0  0  0
 27 45  1  0  0  0
 29 30  1  0  0  0
 29 31  1  0  0  0
 29 55  1  0  0  0
 30 46  1  0  0  0
 30 47  1  0  0  0
 30 48  1  0  0  0
 31 49  1  0  0  0
 31 50  1  0  0  0
 31 51  1  0  0  0
 32 52  1  0  0  0
 34 54  1  0  0  0
 36 53  1  0  0  0
M  CHG  3  10  -1  24  -1  29   1
M  END
> <s_m_entry_id>
62

> <s_m_entry_name>
biosynth_p1.0.sdf.55

> <s_m_Source_Path>
/Users/Sebastito/Downloads

> <s_m_Source_File>
biosynth_p1.0.sdf.gz

> <i_m_Source_File_Index>
55

> <chiral flag>
1

> <version>
0

> <i_m_ct_enhanced_stereo_status>
0

> <s_m_source_file>
ligprep_vs.maegz

> <i_m_source_file_index>
55

> <i_lp_mmshare_version>
37011

> <r_epik_Ionization_Penalty>
0.0278475

> <r_epik_Ionization_Penalty_Charging>
0.0277848

> <r_epik_Ionization_Penalty_Neutral>
6.27066e-05

> <r_epik_State_Penalty>
0.020402

> <r_epik_Charging_Adjusted_Penalty>
0.0481868

> <i_epik_Tot_Q>
-1

> <i_epik_Tot_abs_Q>
3

> <i_f3d_flags>
0

> <s_lp_Force_Field>
OPLS_2005

> <r_lp_Energy>
68.1827

> <b_lp_Chiralities_Consistent>
1

> <s_lp_Variant>
ZINC19701769-1

$$$$
ZINC19701769
                    3D
 Structure written by MMmdl.
 54 57  0  0  1  0            999 V2000
    0.4973    4.9276    2.7230 C   0  0  0  0  0  0
   -0.3774    3.7569    3.2545 C   0  0  1  0  0  0
   -1.4076    4.2476    4.3019 C   0  0  0  0  0  0
   -0.9975    5.0396    5.4194 C   0  0  0  0  0  0
   -1.9467    5.6774    6.2316 C   0  0  0  0  0  0
   -3.3096    5.5321    5.9653 C   0  0  0  0  0  0
   -3.7382    4.6549    4.9581 C   0  0  0  0  0  0
   -2.7926    3.9139    4.1756 C   0  0  0  0  0  0
   -3.2012    2.8030    3.2552 C   0  0  0  0  0  0
   -4.2658    2.2470    3.6157 O   0  5  0  0  0  0
   -2.3601    2.4260    2.2239 C   0  0  1  0  0  0
   -2.6676    1.3227    1.2732 C   0  0  0  0  0  0
   -2.1540    1.5149   -0.1782 C   0  0  1  0  0  0
   -0.5909    1.5172   -0.1272 C   0  0  1  0  0  0
   -0.2436    2.1121   -0.9730 H   0  0  0  0  0  0
   -0.0364    2.1761    1.1820 C   0  0  0  0  0  0
   -1.0135    3.1000    1.9782 C   0  0  2  0  0  0
   -1.2795    3.9255    1.3170 H   0  0  0  0  0  0
    0.0108    0.0907   -0.2585 C   0  0  1  0  0  0
   -0.3781   -0.4668    0.5945 H   0  0  0  0  0  0
   -0.5412   -0.6267   -1.5119 C   0  0  0  0  0  0
   -1.9974   -0.5064   -1.7873 C   0  0  0  0  0  0
   -2.7881    0.4763   -1.1656 C   0  0  0  0  0  0
   -4.0170    0.7349   -1.2707 O   0  5  0  0  0  0
   -2.5935   -1.4730   -2.7370 C   0  0  0  0  0  0
   -2.1614   -2.6032   -2.9654 O   0  0  0  0  0  0
   -3.6513   -1.0296   -3.4246 N   0  0  0  0  0  0
    0.1983   -1.2990   -2.2341 O   0  0  0  0  0  0
    1.4995    0.1124   -0.0992 N   0  0  0  0  0  0
    2.2627    0.7076   -1.1970 C   0  0  0  0  0  0
    2.0521   -1.1912    0.2580 C   0  0  0  0  0  0
   -2.5285    2.8181   -0.6186 O   0  0  0  0  0  0
   -3.2384    0.2834    1.6093 O   0  0  0  0  0  0
   -5.0927    4.5749    4.7799 O   0  0  0  0  0  0
    0.6514    5.2290    5.9117 Cl  0  0  0  0  0  0
    0.4866    2.8139    3.8610 O   0  0  0  0  0  0
   -0.1280    5.7278    2.3256 H   0  0  0  0  0  0
    1.1571    4.6140    1.9163 H   0  0  0  0  0  0
    1.1586    5.3755    3.4557 H   0  0  0  0  0  0
   -1.6264    6.2973    7.0562 H   0  0  0  0  0  0
   -4.0309    6.0649    6.5676 H   0  0  0  0  0  0
    0.2506    1.3715    1.8598 H   0  0  0  0  0  0
    0.8906    2.6938    0.9420 H   0  0  0  0  0  0
   -4.0136   -0.1063   -3.2306 H   0  0  0  0  0  0
   -4.0985   -1.6250   -4.1050 H   0  0  0  0  0  0
    3.3052    0.8280   -0.9009 H   0  0  0  0  0  0
    1.8930    1.7001   -1.4500 H   0  0  0  0  0  0
    2.2530    0.1009   -2.1015 H   0  0  0  0  0  0
    3.1005   -1.0930    0.5412 H   0  0  0  0  0  0
    1.9958   -1.9106   -0.5584 H   0  0  0  0  0  0
    1.5242   -1.6084    1.1162 H   0  0  0  0  0  0
   -3.4710    2.8307   -0.6912 H   0  0  0  0  0  0
   -0.0189    2.0398    4.0583 H   0  0  0  0  0  0
   -5.5809    5.1086    5.3866 H   0  0  0  0  0  0
  1  2  1  0  0  0
  1 37  1  0  0  0
  1 38  1  0  0  0
  1 39  1  0  0  0
  2 17  1  0  0  0
  2  3  1  0  0  0
  2 36  1  0  0  0
  3  8  2  0  0  0
  3  4  1  0  0  0
  4  5  2  0  0  0
  4 35  1  0  0  0
  5  6  1  0  0  0
  5 40  1  0  0  0
  6  7  2  0  0  0
  6 41  1  0  0  0
  7  8  1  0  0  0
  7 34  1  0  0  0
  8  9  1  0  0  0
  9 10  1  0  0  0
  9 11  2  0  0  0
 11 17  1  0  0  0
 11 12  1  0  0  0
 12 13  1  0  0  0
 12 33  2  0  0  0
 13 14  1  0  0  0
 13 32  1  0  0  0
 13 23  1  0  0  0
 14 15  1  0  0  0
 14 16  1  0  0  0
 14 19  1  0  0  0
 16 17  1  0  0  0
 16 42  1  0  0  0
 16 43  1  0  0  0
 17 18  1  0  0  0
 19 20  1  0  0  0
 19 29  1  0  0  0
 19 21  1  0  0  0
 21 22  1  0  0  0
 21 28  2  0  0  0
 22 25  1  0  0  0
 22 23  2  0  0  0
 23 24  1  0  0  0
 25 26  2  0  0  0
 25 27  1  0  0  0
 27 44  1  0  0  0
 27 45  1  0  0  0
 29 30  1  0  0  0
 29 31  1  0  0  0
 30 46  1  0  0  0
 30 47  1  0  0  0
 30 48  1  0  0  0
 31 49  1  0  0  0
 31 50  1  0  0  0
 31 51  1  0  0  0
 32 52  1  0  0  0
 34 54  1  0  0  0
 36 53  1  0  0  0
M  CHG  2  10  -1  24  -1
M  END
> <s_m_entry_id>
62

> <s_m_entry_name>
biosynth_p1.0.sdf.55

> <s_m_Source_Path>
/Users/Sebastito/Downloads

> <s_m_Source_File>
biosynth_p1.0.sdf.gz

> <i_m_Source_File_Index>
55

> <chiral flag>
1

> <version>
0

> <i_m_ct_enhanced_stereo_status>
0

> <s_m_source_file>
ligprep_vs.maegz

> <i_m_source_file_index>
55

> <i_lp_mmshare_version>
37011

> <r_epik_Ionization_Penalty>
2.1639

> <r_epik_Ionization_Penalty_Charging>
0.0192843

> <r_epik_Ionization_Penalty_Neutral>
2.14462

> <r_epik_State_Penalty>
2.29159

> <r_epik_Charging_Adjusted_Penalty>
2.31088

> <i_epik_Tot_Q>
-2

> <i_epik_Tot_abs_Q>
2

> <i_f3d_flags>
0

> <s_lp_Force_Field>
OPLS_2005

> <r_lp_Energy>
80.4374

> <b_lp_Chiralities_Consistent>
1

> <s_lp_Variant>
ZINC19701769-2

$$$$
ZINC19701769
                    3D
 Structure written by MMmdl.
 56 59  0  0  1  0            999 V2000
   -3.8114   -0.6164   -5.1794 C   0  0  0  0  0  0
   -3.8721   -0.8396   -3.6524 C   0  0  1  0  0  0
   -4.8113   -2.0445   -3.3907 C   0  0  0  0  0  0
   -6.2330   -1.8975   -3.4284 C   0  0  0  0  0  0
   -7.0712   -2.9960   -3.1827 C   0  0  0  0  0  0
   -6.5283   -4.2546   -2.9113 C   0  0  0  0  0  0
   -5.1373   -4.4381   -2.9087 C   0  0  0  0  0  0
   -4.2553   -3.3470   -3.1789 C   0  0  0  0  0  0
   -2.7727   -3.5048   -3.1900 C   0  0  0  0  0  0
   -2.2807   -4.7539   -3.2445 O   0  0  0  0  0  0
   -1.9492   -2.4424   -3.1429 C   0  0  1  0  0  0
   -0.4979   -2.5687   -2.9717 C   0  0  0  0  0  0
    0.0624   -2.0191   -1.6269 C   0  0  1  0  0  0
   -0.5758   -0.6060   -1.3464 C   0  0  1  0  0  0
   -0.1052    0.1060   -2.0236 H   0  0  0  0  0  0
   -2.0989   -0.4894   -1.6934 C   0  0  0  0  0  0
   -2.4140   -1.0118   -3.1120 C   0  0  2  0  0  0
   -1.7627   -0.4368   -3.7742 H   0  0  0  0  0  0
   -0.3399   -0.1414    0.1136 C   0  0  1  0  0  0
   -0.8474    0.8131    0.2596 H   0  0  0  0  0  0
   -0.9809   -1.1804    1.0471 C   0  0  0  0  0  0
   -0.7097   -2.6177    0.7673 C   0  0  0  0  0  0
   -0.1513   -3.0403   -0.4550 C   0  0  0  0  0  0
    0.2534   -4.1727   -0.8255 O   0  5  0  0  0  0
   -0.9761   -3.5819    1.8540 C   0  0  0  0  0  0
   -0.9689   -3.3139    3.0554 O   0  0  0  0  0  0
   -1.3041   -4.8160    1.4553 N   0  0  0  0  0  0
   -1.6802   -0.7937    1.9847 O   0  0  0  0  0  0
    1.1001    0.0733    0.4844 N   0  3  0  0  0  0
    1.7637    1.1110   -0.3440 C   0  0  0  0  0  0
    1.3345    0.3648    1.9247 C   0  0  0  0  0  0
    1.4600   -1.8271   -1.7875 O   0  0  0  0  0  0
    0.2376   -3.0760   -3.8205 O   0  0  0  0  0  0
   -4.7025   -5.7010   -2.6188 O   0  0  0  0  0  0
   -7.0414   -0.4139   -3.8111 Cl  0  0  0  0  0  0
   -4.3417    0.3875   -3.1246 O   0  0  0  0  0  0
   -3.4028   -1.4906   -5.6880 H   0  0  0  0  0  0
   -3.1843    0.2369   -5.4419 H   0  0  0  0  0  0
   -4.7980   -0.4276   -5.6031 H   0  0  0  0  0  0
   -8.1442   -2.8733   -3.2054 H   0  0  0  0  0  0
   -7.1879   -5.0866   -2.7111 H   0  0  0  0  0  0
   -2.7188   -1.0403   -0.9854 H   0  0  0  0  0  0
   -2.3814    0.5587   -1.5930 H   0  0  0  0  0  0
   -1.3070   -5.0374    0.4695 H   0  0  0  0  0  0
   -1.5227   -5.5256    2.1391 H   0  0  0  0  0  0
    1.2390    2.0640   -0.2669 H   0  0  0  0  0  0
    1.8183    0.8328   -1.3946 H   0  0  0  0  0  0
    2.7934    1.2671   -0.0206 H   0  0  0  0  0  0
    0.7496    1.2273    2.2467 H   0  0  0  0  0  0
    2.3864    0.5822    2.1129 H   0  0  0  0  0  0
    1.0841   -0.4816    2.5645 H   0  0  0  0  0  0
    1.8506   -2.6755   -1.9386 H   0  0  0  0  0  0
   -4.3841    0.3125   -2.1836 H   0  0  0  0  0  0
   -5.4069   -6.3087   -2.4541 H   0  0  0  0  0  0
    1.5753   -0.7975    0.2911 H   0  0  0  0  0  0
   -1.3374   -4.6905   -3.2334 H   0  0  0  0  0  0
  1  2  1  0  0  0
  1 37  1  0  0  0
  1 38  1  0  0  0
  1 39  1  0  0  0
  2 17  1  0  0  0
  2  3  1  0  0  0
  2 36  1  0  0  0
  3  8  2  0  0  0
  3  4  1  0  0  0
  4  5  2  0  0  0
  4 35  1  0  0  0
  5  6  1  0  0  0
  5 40  1  0  0  0
  6  7  2  0  0  0
  6 41  1  0  0  0
  7  8  1  0  0  0
  7 34  1  0  0  0
  8  9  1  0  0  0
  9 10  1  0  0  0
  9 11  2  0  0  0
 10 56  1  0  0  0
 11 17  1  0  0  0
 11 12  1  0  0  0
 12 13  1  0  0  0
 12 33  2  0  0  0
 13 14  1  0  0  0
 13 32  1  0  0  0
 13 23  1  0  0  0
 14 15  1  0  0  0
 14 16  1  0  0  0
 14 19  1  0  0  0
 16 17  1  0  0  0
 16 42  1  0  0  0
 16 43  1  0  0  0
 17 18  1  0  0  0
 19 20  1  0  0  0
 19 29  1  0  0  0
 19 21  1  0  0  0
 21 22  1  0  0  0
 21 28  2  0  0  0
 22 25  1  0  0  0
 22 23  2  0  0  0
 23 24  1  0  0  0
 25 26  2  0  0  0
 25 27  1  0  0  0
 27 44  1  0  0  0
 27 45  1  0  0  0
 29 30  1  0  0  0
 29 31  1  0  0  0
 29 55  1  0  0  0
 30 46  1  0  0  0
 30 47  1  0  0  0
 30 48  1  0  0  0
 31 49  1  0  0  0
 31 50  1  0  0  0
 31 51  1  0  0  0
 32 52  1  0  0  0
 34 54  1  0  0  0
 36 53  1  0  0  0
M  CHG  2  24  -1  29   1
M  END
> <s_m_entry_id>
62

> <s_m_entry_name>
biosynth_p1.0.sdf.55

> <s_m_Source_Path>
/Users/Sebastito/Downloads

> <s_m_Source_File>
biosynth_p1.0.sdf.gz

> <i_m_Source_File_Index>
55

> <chiral flag>
1

> <version>
0

> <i_m_ct_enhanced_stereo_status>
0

> <s_m_source_file>
ligprep_vs.maegz

> <i_m_source_file_index>
55

> <i_lp_mmshare_version>
37011

> <r_epik_Ionization_Penalty>
2.46344

> <r_epik_Ionization_Penalty_Charging>
0.0496299

> <r_epik_Ionization_Penalty_Neutral>
2.41381

> <r_epik_State_Penalty>
2.57564

> <r_epik_Charging_Adjusted_Penalty>
2.62527

> <i_epik_Tot_Q>
0

> <i_epik_Tot_abs_Q>
2

> <i_f3d_flags>
0

> <s_lp_Force_Field>
OPLS_2005

> <r_lp_Energy>
55.3525

> <b_lp_Chiralities_Consistent>
1

> <s_lp_Variant>
ZINC19701769-3

$$$$
ZINC21985914
                    3D
 Structure written by MMmdl.
 25 27  0  0  1  0            999 V2000
    0.0017   -0.2010    0.0001 C   0  0  0  0  0  0
    1.4508    0.1100   -0.0000 N   0  3  1  0  0  0
    1.9479    0.8817   -1.1633 C   0  0  2  0  0  0
    1.3862    0.6755   -2.0751 H   0  0  0  0  0  0
    3.4408    0.4978   -1.3012 C   0  0  0  0  0  0
    4.2312    0.8308    0.0000 C   0  0  1  0  0  0
    3.4408    0.4978    1.3014 C   0  0  0  0  0  0
    1.9478    0.8817    1.1633 C   0  0  1  0  0  0
    1.3861    0.6755    2.0752 H   0  0  0  0  0  0
    1.8171    2.3360    0.7410 C   0  0  1  0  0  0
    2.3424    3.1149    1.2902 H   0  0  0  0  0  0
    1.8171    2.3360   -0.7411 C   0  0  2  0  0  0
    2.3425    3.1149   -1.2902 H   0  0  0  0  0  0
    0.6564    2.7546   -0.0000 O   0  0  0  0  0  0
    5.4753    0.1638    0.0001 O   0  0  0  0  0  0
   -0.6258    0.6888   -0.0000 H   0  0  0  0  0  0
   -0.2538   -0.7918    0.8799 H   0  0  0  0  0  0
   -0.2538   -0.7919   -0.8800 H   0  0  0  0  0  0
    3.5107   -0.5701   -1.5150 H   0  0  0  0  0  0
    3.8905    1.0097   -2.1529 H   0  0  0  0  0  0
    4.4543    1.8985    0.0001 H   0  0  0  0  0  0
    3.5106   -0.5700    1.5151 H   0  0  0  0  0  0
    3.8904    1.0098    2.1530 H   0  0  0  0  0  0
    5.3239   -0.7691    0.0001 H   0  0  0  0  0  0
    1.9192   -0.7848    0.0000 H   0  0  0  0  0  0
  1  2  1  0  0  0
  1 16  1  0  0  0
  1 17  1  0  0  0
  1 18  1  0  0  0
  2  8  1  0  0  0
  2  3  1  0  0  0
  2 25  1  0  0  0
  3  4  1  0  0  0
  3 12  1  0  0  0
  3  5  1  0  0  0
  5  6  1  0  0  0
  5 19  1  0  0  0
  5 20  1  0  0  0
  6  7  1  0  0  0
  6 15  1  0  0  0
  6 21  1  0  0  0
  7  8  1  0  0  0
  7 22  1  0  0  0
  7 23  1  0  0  0
  8  9  1  0  0  0
  8 10  1  0  0  0
 10 11  1  0  0  0
 10 14  1  0  0  0
 10 12  1  0  0  0
 12 13  1  0  0  0
 12 14  1  0  0  0
 15 24  1  0  0  0
M  CHG  1   2   1
M  END
> <s_m_entry_id>
63

> <s_m_entry_name>
biosynth_p1.0.sdf.56

> <s_m_Source_Path>
/Users/Sebastito/Downloads

> <s_m_Source_File>
biosynth_p1.0.sdf.gz

> <i_m_Source_File_Index>
56

> <chiral flag>
1

> <version>
0

> <i_m_ct_enhanced_stereo_status>
0

> <s_m_source_file>
ligprep_vs.maegz

> <i_m_source_file_index>
56

> <i_lp_mmshare_version>
37011

> <r_epik_Ionization_Penalty>
0.338489

> <r_epik_Ionization_Penalty_Charging>
0.338488

> <r_epik_Ionization_Penalty_Neutral>
4.16367e-07

> <r_epik_State_Penalty>
0.334003

> <r_epik_Charging_Adjusted_Penalty>
0.672491

> <i_epik_Tot_Q>
1

> <i_epik_Tot_abs_Q>
1

> <i_f3d_flags>
0

> <s_lp_Force_Field>
OPLS_2005

> <r_lp_Energy>
62.8839

> <b_lp_Chiralities_Consistent>
1

> <s_lp_Variant>
ZINC21985914-1

$$$$
ZINC21985914
                    3D
 Structure written by MMmdl.
 25 27  0  0  1  0            999 V2000
    0.0109   -0.2317   -0.0000 C   0  0  0  0  0  0
    1.4503    0.1208   -0.0000 N   0  3  1  0  0  0
    1.9244    0.9071   -1.1617 C   0  0  2  0  0  0
    1.3651    0.6882   -2.0721 H   0  0  0  0  0  0
    3.4256    0.5586   -1.3098 C   0  0  0  0  0  0
    4.2366    0.8171    0.0001 C   0  0  2  0  0  0
    3.4255    0.5586    1.3100 C   0  0  0  0  0  0
    1.9243    0.9071    1.1617 C   0  0  1  0  0  0
    1.3649    0.6882    2.0721 H   0  0  0  0  0  0
    1.7527    2.3564    0.7404 C   0  0  1  0  0  0
    2.2540    3.1501    1.2909 H   0  0  0  0  0  0
    1.7527    2.3564   -0.7404 C   0  0  2  0  0  0
    2.2541    3.1501   -1.2909 H   0  0  0  0  0  0
    0.5799    2.7415   -0.0000 O   0  0  0  0  0  0
    4.7357    2.1405    0.0001 O   0  0  0  0  0  0
   -0.6416    0.6399   -0.0000 H   0  0  0  0  0  0
   -0.2274   -0.8294    0.8801 H   0  0  0  0  0  0
   -0.2274   -0.8294   -0.8801 H   0  0  0  0  0  0
    3.5042   -0.4995   -1.5634 H   0  0  0  0  0  0
    3.8666    1.0963   -2.1503 H   0  0  0  0  0  0
    5.1192    0.1765    0.0001 H   0  0  0  0  0  0
    3.5041   -0.4994    1.5635 H   0  0  0  0  0  0
    3.8665    1.0964    2.1505 H   0  0  0  0  0  0
    5.6808    2.1078   -0.0002 H   0  0  0  0  0  0
    1.9451   -0.7594    0.0000 H   0  0  0  0  0  0
  1  2  1  0  0  0
  1 16  1  0  0  0
  1 17  1  0  0  0
  1 18  1  0  0  0
  2  8  1  0  0  0
  2  3  1  0  0  0
  2 25  1  0  0  0
  3  4  1  0  0  0
  3 12  1  0  0  0
  3  5  1  0  0  0
  5  6  1  0  0  0
  5 19  1  0  0  0
  5 20  1  0  0  0
  6  7  1  0  0  0
  6 15  1  0  0  0
  6 21  1  0  0  0
  7  8  1  0  0  0
  7 22  1  0  0  0
  7 23  1  0  0  0
  8  9  1  0  0  0
  8 10  1  0  0  0
 10 11  1  0  0  0
 10 14  1  0  0  0
 10 12  1  0  0  0
 12 13  1  0  0  0
 12 14  1  0  0  0
 15 24  1  0  0  0
M  CHG  1   2   1
M  END
> <s_m_entry_id>
63

> <s_m_entry_name>
biosynth_p1.0.sdf.56

> <s_m_Source_Path>
/Users/Sebastito/Downloads

> <s_m_Source_File>
biosynth_p1.0.sdf.gz

> <i_m_Source_File_Index>
56

> <chiral flag>
1

> <version>
0

> <i_m_ct_enhanced_stereo_status>
0

> <s_m_source_file>
ligprep_vs.maegz

> <i_m_source_file_index>
56

> <i_lp_mmshare_version>
37011

> <r_epik_Ionization_Penalty>
0.338489

> <r_epik_Ionization_Penalty_Charging>
0.338488

> <r_epik_Ionization_Penalty_Neutral>
4.16367e-07

> <r_epik_State_Penalty>
0.334003

> <r_epik_Charging_Adjusted_Penalty>
0.672491

> <i_epik_Tot_Q>
1

> <i_epik_Tot_abs_Q>
1

> <i_f3d_flags>
0

> <s_lp_Force_Field>
OPLS_2005

> <r_lp_Energy>
66.1882

> <b_lp_Chiralities_Consistent>
1

> <s_lp_Variant>
ZINC21985914-2

$$$$
ZINC21985914
                    3D
 Structure written by MMmdl.
 24 26  0  0  1  0            999 V2000
   -0.0013    0.1803    0.3092 C   0  0  0  0  0  0
    1.4010   -0.0423   -0.0313 N   0  0  0  0  0  0
    1.8790    0.5158   -1.2943 C   0  0  2  0  0  0
    1.8610    1.6057   -1.2713 H   0  0  0  0  0  0
    1.0777   -0.0401   -2.5016 C   0  0  0  0  0  0
    1.1435   -1.5917   -2.5511 C   0  0  1  0  0  0
    1.0561   -2.2441   -1.1438 C   0  0  0  0  0  0
    1.8607   -1.4275   -0.0977 C   0  0  1  0  0  0
    1.8282   -1.8967    0.8859 H   0  0  0  0  0  0
    3.2998   -1.2632   -0.5624 C   0  0  1  0  0  0
    3.8726   -2.1229   -0.9045 H   0  0  0  0  0  0
    3.3118    0.0076   -1.3447 C   0  0  2  0  0  0
    3.8932    0.0809   -2.2618 H   0  0  0  0  0  0
    4.0567   -0.1207   -0.1183 O   0  0  0  0  0  0
    0.1292   -2.0980   -3.3929 O   0  0  0  0  0  0
   -0.2113    1.2482    0.3702 H   0  0  0  0  0  0
   -0.2295   -0.2584    1.2808 H   0  0  0  0  0  0
   -0.6845   -0.2524   -0.4201 H   0  0  0  0  0  0
    0.0422    0.2957   -2.4432 H   0  0  0  0  0  0
    1.4668    0.3736   -3.4326 H   0  0  0  0  0  0
    2.0954   -1.8775   -3.0007 H   0  0  0  0  0  0
    0.0164   -2.3267   -0.8259 H   0  0  0  0  0  0
    1.4306   -3.2673   -1.1889 H   0  0  0  0  0  0
    0.2289   -3.0357   -3.4549 H   0  0  0  0  0  0
  1  2  1  0  0  0
  1 16  1  0  0  0
  1 17  1  0  0  0
  1 18  1  0  0  0
  2  8  1  0  0  0
  2  3  1  0  0  0
  3  4  1  0  0  0
  3 12  1  0  0  0
  3  5  1  0  0  0
  5  6  1  0  0  0
  5 19  1  0  0  0
  5 20  1  0  0  0
  6  7  1  0  0  0
  6 15  1  0  0  0
  6 21  1  0  0  0
  7  8  1  0  0  0
  7 22  1  0  0  0
  7 23  1  0  0  0
  8  9  1  0  0  0
  8 10  1  0  0  0
 10 11  1  0  0  0
 10 14  1  0  0  0
 10 12  1  0  0  0
 12 13  1  0  0  0
 12 14  1  0  0  0
 15 24  1  0  0  0
M  END
> <s_m_entry_id>
63

> <s_m_entry_name>
biosynth_p1.0.sdf.56

> <s_m_Source_Path>
/Users/Sebastito/Downloads

> <s_m_Source_File>
biosynth_p1.0.sdf.gz

> <i_m_Source_File_Index>
56

> <chiral flag>
1

> <version>
0

> <i_m_ct_enhanced_stereo_status>
0

> <s_m_source_file>
ligprep_vs.maegz

> <i_m_source_file_index>
56

> <i_lp_mmshare_version>
37011

> <r_epik_Ionization_Penalty>
0.492905

> <r_epik_Ionization_Penalty_Charging>
0

> <r_epik_Ionization_Penalty_Neutral>
0.492905

> <r_epik_State_Penalty>
0.498776

> <r_epik_Charging_Adjusted_Penalty>
0.498776

> <i_epik_Tot_Q>
0

> <i_epik_Tot_abs_Q>
0

> <i_f3d_flags>
0

> <s_lp_Force_Field>
OPLS_2005

> <r_lp_Energy>
77.1466

> <b_lp_Chiralities_Consistent>
1

> <s_lp_Variant>
ZINC21985914-3

$$$$
ZINC18210358
                    3D
 Structure written by MMmdl.
 55 58  0  0  1  0            999 V2000
    0.6026    0.5456   -5.5836 C   0  0  0  0  0  0
   -0.7468    0.9781   -4.9551 C   0  0  1  0  0  0
   -1.8770    1.1260   -5.9879 C   0  0  0  0  0  0
   -1.5791    1.2721   -7.3662 C   0  0  0  0  0  0
   -2.5992    1.3802   -8.3208 C   0  0  0  0  0  0
   -3.9365    1.3257   -7.9123 C   0  0  0  0  0  0
   -4.2613    1.1904   -6.5504 C   0  0  0  0  0  0
   -3.2358    1.1328   -5.5505 C   0  0  0  0  0  0
   -3.5162    0.9999   -4.0805 C   0  0  0  0  0  0
   -4.6058    1.5191   -3.7427 O   0  5  0  0  0  0
   -2.5543    0.4038   -3.2744 C   0  0  0  0  0  0
   -2.7275    0.1591   -1.8229 C   0  0  0  0  0  0
   -2.0619   -1.1276   -1.2787 C   0  0  1  0  0  0
   -0.5177   -0.9387   -1.3948 C   0  0  1  0  0  0
   -0.0866   -1.9406   -1.4213 H   0  0  0  0  0  0
   -0.1071   -0.2025   -2.7138 C   0  0  0  0  0  0
   -1.1862   -0.0111   -3.8273 C   0  0  2  0  0  0
   -1.3421   -0.9862   -4.2915 H   0  0  0  0  0  0
    0.0822   -0.1825   -0.1706 C   0  0  1  0  0  0
   -0.3002    0.8388   -0.1816 H   0  0  0  0  0  0
   -0.3654   -0.7943    1.1723 C   0  0  0  0  0  0
    0.4235   -0.8371    2.1218 O   0  0  0  0  0  0
   -1.7613   -1.3031    1.2835 C   0  0  0  0  0  0
   -2.5786   -1.4746    0.1576 C   0  0  0  0  0  0
   -3.7544   -1.9150    0.0651 O   0  5  0  0  0  0
   -2.3430   -1.6874    2.5884 C   0  0  0  0  0  0
   -3.1828   -2.5680    2.7709 O   0  0  0  0  0  0
   -1.9243   -0.9563    3.6285 N   0  0  0  0  0  0
    1.5816   -0.1105   -0.1232 N   0  3  0  0  0  0
    2.1771    1.1241   -0.6828 C   0  0  0  0  0  0
    2.3177   -1.3349   -0.5222 C   0  0  0  0  0  0
   -2.3730   -2.2125   -2.1533 O   0  0  0  0  0  0
   -3.3030    0.9444   -1.0678 O   0  0  0  0  0  0
   -5.5956    1.0906   -6.2658 O   0  0  0  0  0  0
   -0.4960    2.2399   -4.3626 O   0  0  0  0  0  0
    0.5139   -0.4137   -6.0945 H   0  0  0  0  0  0
    1.3965    0.4528   -4.8445 H   0  0  0  0  0  0
    0.9774    1.2784   -6.2974 H   0  0  0  0  0  0
   -0.5666    1.3011   -7.7329 H   0  0  0  0  0  0
   -2.3550    1.4867   -9.3674 H   0  0  0  0  0  0
   -4.7202    1.3793   -8.6538 H   0  0  0  0  0  0
    0.2138    0.7999   -2.4456 H   0  0  0  0  0  0
    0.7678   -0.7033   -3.1236 H   0  0  0  0  0  0
   -1.2461   -0.2226    3.4869 H   0  0  0  0  0  0
   -2.2908   -1.1442    4.5504 H   0  0  0  0  0  0
    2.2590    1.0846   -1.7684 H   0  0  0  0  0  0
    3.1850    1.2567   -0.2885 H   0  0  0  0  0  0
    1.5981    2.0053   -0.4052 H   0  0  0  0  0  0
    2.2921   -1.4918   -1.5998 H   0  0  0  0  0  0
    1.9057   -2.2186   -0.0341 H   0  0  0  0  0  0
    3.3636   -1.2556   -0.2247 H   0  0  0  0  0  0
   -2.0651   -3.0106   -1.7536 H   0  0  0  0  0  0
   -6.1454    1.1495   -7.0310 H   0  0  0  0  0  0
   -1.2775    2.5019   -3.8982 H   0  0  0  0  0  0
    1.7580   -0.0252    0.8682 H   0  0  0  0  0  0
  1  2  1  0  0  0
  1 36  1  0  0  0
  1 37  1  0  0  0
  1 38  1  0  0  0
  2 17  1  0  0  0
  2  3  1  0  0  0
  2 35  1  0  0  0
  3  8  2  0  0  0
  3  4  1  0  0  0
  4  5  2  0  0  0
  4 39  1  0  0  0
  5  6  1  0  0  0
  5 40  1  0  0  0
  6  7  2  0  0  0
  6 41  1  0  0  0
  7  8  1  0  0  0
  7 34  1  0  0  0
  8  9  1  0  0  0
  9 10  1  0  0  0
  9 11  2  0  0  0
 11 17  1  0  0  0
 11 12  1  0  0  0
 12 13  1  0  0  0
 12 33  2  0  0  0
 13 24  1  0  0  0
 13 14  1  0  0  0
 13 32  1  0  0  0
 14 15  1  0  0  0
 14 16  1  0  0  0
 14 19  1  0  0  0
 16 17  1  0  0  0
 16 42  1  0  0  0
 16 43  1  0  0  0
 17 18  1  0  0  0
 19 20  1  0  0  0
 19 21  1  0  0  0
 19 29  1  0  0  0
 21 22  2  0  0  0
 21 23  1  0  0  0
 23 24  2  0  0  0
 23 26  1  0  0  0
 24 25  1  0  0  0
 26 27  2  0  0  0
 26 28  1  0  0  0
 28 44  1  0  0  0
 28 45  1  0  0  0
 29 30  1  0  0  0
 29 31  1  0  0  0
 29 55  1  0  0  0
 30 46  1  0  0  0
 30 47  1  0  0  0
 30 48  1  0  0  0
 31 49  1  0  0  0
 31 50  1  0  0  0
 31 51  1  0  0  0
 32 52  1  0  0  0
 34 53  1  0  0  0
 35 54  1  0  0  0
M  CHG  3  10  -1  25  -1  29   1
M  END
> <s_m_entry_id>
64

> <s_m_entry_name>
biosynth_p1.0.sdf.57

> <s_m_Source_Path>
/Users/Sebastito/Downloads

> <s_m_Source_File>
biosynth_p1.0.sdf.gz

> <i_m_Source_File_Index>
57

> <chiral flag>
1

> <version>
0

> <i_m_ct_enhanced_stereo_status>
0

> <s_m_source_file>
ligprep_vs.maegz

> <i_m_source_file_index>
57

> <i_lp_mmshare_version>
37011

> <r_epik_Ionization_Penalty>
0.0331856

> <r_epik_Ionization_Penalty_Charging>
0.0331571

> <r_epik_Ionization_Penalty_Neutral>
2.84823e-05

> <r_epik_State_Penalty>
0.0247693

> <r_epik_Charging_Adjusted_Penalty>
0.0579264

> <i_epik_Tot_Q>
-1

> <i_epik_Tot_abs_Q>
3

> <i_f3d_flags>
0

> <s_lp_Force_Field>
OPLS_2005

> <r_lp_Energy>
63.7612

> <b_lp_Chiralities_Consistent>
1

> <s_lp_Variant>
ZINC18210358-1

$$$$
ZINC18210358
                    3D
 Structure written by MMmdl.
 54 57  0  0  1  0            999 V2000
    0.6698    4.5328    3.0218 C   0  0  0  0  0  0
   -0.6619    3.7531    3.1701 C   0  0  1  0  0  0
   -1.7641    4.5670    3.8700 C   0  0  0  0  0  0
   -1.4296    5.6845    4.6757 C   0  0  0  0  0  0
   -2.4224    6.4567    5.2933 C   0  0  0  0  0  0
   -3.7697    6.1324    5.0998 C   0  0  0  0  0  0
   -4.1308    5.0228    4.3147 C   0  0  0  0  0  0
   -3.1317    4.1843    3.7194 C   0  0  0  0  0  0
   -3.4522    2.9755    2.8860 C   0  0  0  0  0  0
   -4.5321    2.4298    3.2142 O   0  5  0  0  0  0
   -2.5331    2.5700    1.9264 C   0  0  0  0  0  0
   -2.7506    1.4331    1.0000 C   0  0  0  0  0  0
   -2.1569    1.6039   -0.4204 C   0  0  1  0  0  0
   -0.6031    1.6218   -0.2768 C   0  0  1  0  0  0
   -0.2111    2.1549   -1.1444 H   0  0  0  0  0  0
   -0.1254    2.3877    1.0052 C   0  0  0  0  0  0
   -1.1704    3.2550    1.7783 C   0  0  2  0  0  0
   -1.3600    4.1398    1.1688 H   0  0  0  0  0  0
    0.0069    0.1915   -0.2825 C   0  0  1  0  0  0
   -0.4437   -0.3207    0.5685 H   0  0  0  0  0  0
   -0.4528   -0.5880   -1.5370 C   0  0  0  0  0  0
    0.3423   -1.2739   -2.1828 O   0  0  0  0  0  0
   -1.8912   -0.4897   -1.9166 C   0  0  0  0  0  0
   -2.7146    0.5288   -1.4139 C   0  0  0  0  0  0
   -3.9244    0.7889   -1.6473 O   0  5  0  0  0  0
   -2.5075   -1.4357   -2.8737 C   0  0  0  0  0  0
   -3.4619   -1.1969   -3.6132 O   0  0  0  0  0  0
   -1.9774   -2.6650   -2.8694 N   0  0  0  0  0  0
    1.4808    0.2217   -0.0179 N   0  0  0  0  0  0
    2.0060   -1.0659    0.4283 C   0  0  0  0  0  0
    2.3226    0.7791   -1.0770 C   0  0  0  0  0  0
   -2.5046    2.8981   -0.9111 O   0  0  0  0  0  0
   -3.3140    0.3887    1.3323 O   0  0  0  0  0  0
   -5.4746    4.8306    4.1438 O   0  0  0  0  0  0
   -0.3455    2.6241    3.9649 O   0  0  0  0  0  0
    0.5316    5.4469    2.4434 H   0  0  0  0  0  0
    1.4438    3.9466    2.5298 H   0  0  0  0  0  0
    1.1014    4.8011    3.9856 H   0  0  0  0  0  0
   -0.4086    5.9855    4.8406 H   0  0  0  0  0  0
   -2.1502    7.3081    5.8992 H   0  0  0  0  0  0
   -4.5336    6.7475    5.5527 H   0  0  0  0  0  0
    0.2593    1.6596    1.7183 H   0  0  0  0  0  0
    0.7311    2.9962    0.7188 H   0  0  0  0  0  0
   -1.1978   -2.8702   -2.2617 H   0  0  0  0  0  0
   -2.3554   -3.3760   -3.4775 H   0  0  0  0  0  0
    3.0290   -0.9532    0.7885 H   0  0  0  0  0  0
    2.0161   -1.8144   -0.3633 H   0  0  0  0  0  0
    1.4142   -1.4555    1.2573 H   0  0  0  0  0  0
    3.3410    0.9095   -0.7097 H   0  0  0  0  0  0
    1.9747    1.7625   -1.3891 H   0  0  0  0  0  0
    2.3770    0.1424   -1.9588 H   0  0  0  0  0  0
   -2.2108    2.9590   -1.8061 H   0  0  0  0  0  0
   -6.0030    5.4650    4.6017 H   0  0  0  0  0  0
    0.2438    2.0722    3.4746 H   0  0  0  0  0  0
  1  2  1  0  0  0
  1 36  1  0  0  0
  1 37  1  0  0  0
  1 38  1  0  0  0
  2 17  1  0  0  0
  2  3  1  0  0  0
  2 35  1  0  0  0
  3  8  2  0  0  0
  3  4  1  0  0  0
  4  5  2  0  0  0
  4 39  1  0  0  0
  5  6  1  0  0  0
  5 40  1  0  0  0
  6  7  2  0  0  0
  6 41  1  0  0  0
  7  8  1  0  0  0
  7 34  1  0  0  0
  8  9  1  0  0  0
  9 10  1  0  0  0
  9 11  2  0  0  0
 11 17  1  0  0  0
 11 12  1  0  0  0
 12 13  1  0  0  0
 12 33  2  0  0  0
 13 24  1  0  0  0
 13 14  1  0  0  0
 13 32  1  0  0  0
 14 15  1  0  0  0
 14 16  1  0  0  0
 14 19  1  0  0  0
 16 17  1  0  0  0
 16 42  1  0  0  0
 16 43  1  0  0  0
 17 18  1  0  0  0
 19 20  1  0  0  0
 19 21  1  0  0  0
 19 29  1  0  0  0
 21 22  2  0  0  0
 21 23  1  0  0  0
 23 24  2  0  0  0
 23 26  1  0  0  0
 24 25  1  0  0  0
 26 27  2  0  0  0
 26 28  1  0  0  0
 28 44  1  0  0  0
 28 45  1  0  0  0
 29 30  1  0  0  0
 29 31  1  0  0  0
 30 46  1  0  0  0
 30 47  1  0  0  0
 30 48  1  0  0  0
 31 49  1  0  0  0
 31 50  1  0  0  0
 31 51  1  0  0  0
 32 52  1  0  0  0
 34 53  1  0  0  0
 35 54  1  0  0  0
M  CHG  2  10  -1  25  -1
M  END
> <s_m_entry_id>
64

> <s_m_entry_name>
biosynth_p1.0.sdf.57

> <s_m_Source_Path>
/Users/Sebastito/Downloads

> <s_m_Source_File>
biosynth_p1.0.sdf.gz

> <i_m_Source_File_Index>
57

> <chiral flag>
1

> <version>
0

> <i_m_ct_enhanced_stereo_status>
0

> <s_m_source_file>
ligprep_vs.maegz

> <i_m_source_file_index>
57

> <i_lp_mmshare_version>
37011

> <r_epik_Ionization_Penalty>
2.17127

> <r_epik_Ionization_Penalty_Charging>
0.0265245

> <r_epik_Ionization_Penalty_Neutral>
2.14474

> <r_epik_State_Penalty>
2.29596

> <r_epik_Charging_Adjusted_Penalty>
2.32248

> <i_epik_Tot_Q>
-2

> <i_epik_Tot_abs_Q>
2

> <i_f3d_flags>
0

> <s_lp_Force_Field>
OPLS_2005

> <r_lp_Energy>
74.9526

> <b_lp_Chiralities_Consistent>
1

> <s_lp_Variant>
ZINC18210358-2

$$$$
ZINC18210358
                    3D
 Structure written by MMmdl.
 56 59  0  0  1  0            999 V2000
    0.5597    0.7737   -5.3870 C   0  0  0  0  0  0
   -0.5240    1.5009   -4.5512 C   0  0  1  0  0  0
   -1.6123    2.1591   -5.4237 C   0  0  0  0  0  0
   -1.3230    2.5530   -6.7542 C   0  0  0  0  0  0
   -2.2964    3.1649   -7.5578 C   0  0  0  0  0  0
   -3.5791    3.3926   -7.0436 C   0  0  0  0  0  0
   -3.8904    3.0242   -5.7225 C   0  0  0  0  0  0
   -2.9050    2.4223   -4.8831 C   0  0  0  0  0  0
   -3.1791    2.0067   -3.4807 C   0  0  0  0  0  0
   -4.2229    2.5971   -2.8760 O   0  0  0  0  0  0
   -2.3853    1.1214   -2.8381 C   0  0  0  0  0  0
   -2.6510    0.6786   -1.4458 C   0  0  0  0  0  0
   -2.2321   -0.7743   -1.1193 C   0  0  1  0  0  0
   -0.6837   -0.8454   -1.2398 C   0  0  1  0  0  0
   -0.4280   -1.8993   -1.3589 H   0  0  0  0  0  0
   -0.1231   -0.0777   -2.4863 C   0  0  0  0  0  0
   -1.1490    0.5157   -3.5061 C   0  0  2  0  0  0
   -1.5424   -0.3265   -4.0771 H   0  0  0  0  0  0
    0.0125   -0.3264    0.0444 C   0  0  1  0  0  0
   -0.2610    0.7242    0.1487 H   0  0  0  0  0  0
   -0.4973   -1.0526    1.3116 C   0  0  0  0  0  0
    0.2704   -1.3147    2.2400 O   0  0  0  0  0  0
   -1.9504   -1.3741    1.3816 C   0  0  0  0  0  0
   -2.7972   -1.2352    0.2660 C   0  0  0  0  0  0
   -4.0328   -1.4389    0.1329 O   0  5  0  0  0  0
   -2.4914   -1.8185    2.6866 C   0  0  0  0  0  0
   -2.0211   -1.5292    3.7868 O   0  0  0  0  0  0
   -3.5411   -2.6449    2.6250 N   0  0  0  0  0  0
    1.5096   -0.3627   -0.0736 N   0  3  0  0  0  0
    2.2147    0.6015    0.8038 C   0  0  0  0  0  0
    2.1586   -1.6988   -0.1130 C   0  0  0  0  0  0
   -2.7364   -1.6419   -2.1329 O   0  0  0  0  0  0
   -3.1002    1.4167   -0.5666 O   0  0  0  0  0  0
   -5.1722    3.2591   -5.3104 O   0  0  0  0  0  0
    0.1586    2.5185   -3.8416 O   0  0  0  0  0  0
    0.1197   -0.0007   -6.0163 H   0  0  0  0  0  0
    1.3142    0.2969   -4.7637 H   0  0  0  0  0  0
    1.1190    1.4534   -6.0287 H   0  0  0  0  0  0
   -0.3512    2.4021   -7.1945 H   0  0  0  0  0  0
   -2.0597    3.4545   -8.5710 H   0  0  0  0  0  0
   -4.3291    3.8523   -7.6710 H   0  0  0  0  0  0
    0.4931    0.7487   -2.1363 H   0  0  0  0  0  0
    0.5651   -0.7472   -3.0007 H   0  0  0  0  0  0
   -3.9367   -2.8789    1.7250 H   0  0  0  0  0  0
   -3.9529   -3.0030    3.4740 H   0  0  0  0  0  0
    2.1894    0.3015    1.8509 H   0  0  0  0  0  0
    1.7719    1.5946    0.7214 H   0  0  0  0  0  0
    3.2607    0.6845    0.5077 H   0  0  0  0  0  0
    2.1717   -2.1875    0.8603 H   0  0  0  0  0  0
    3.1951   -1.5929   -0.4337 H   0  0  0  0  0  0
    1.6731   -2.3651   -0.8242 H   0  0  0  0  0  0
   -3.6687   -1.7267   -1.9978 H   0  0  0  0  0  0
   -5.7121    3.6447   -5.9835 H   0  0  0  0  0  0
    0.5534    3.1059   -4.4679 H   0  0  0  0  0  0
   -4.6360    3.1605   -3.5133 H   0  0  0  0  0  0
    1.6681    0.0085   -0.9993 H   0  0  0  0  0  0
  1  2  1  0  0  0
  1 36  1  0  0  0
  1 37  1  0  0  0
  1 38  1  0  0  0
  2 17  1  0  0  0
  2  3  1  0  0  0
  2 35  1  0  0  0
  3  8  2  0  0  0
  3  4  1  0  0  0
  4  5  2  0  0  0
  4 39  1  0  0  0
  5  6  1  0  0  0
  5 40  1  0  0  0
  6  7  2  0  0  0
  6 41  1  0  0  0
  7  8  1  0  0  0
  7 34  1  0  0  0
  8  9  1  0  0  0
  9 10  1  0  0  0
  9 11  2  0  0  0
 10 55  1  0  0  0
 11 17  1  0  0  0
 11 12  1  0  0  0
 12 13  1  0  0  0
 12 33  2  0  0  0
 13 24  1  0  0  0
 13 14  1  0  0  0
 13 32  1  0  0  0
 14 15  1  0  0  0
 14 16  1  0  0  0
 14 19  1  0  0  0
 16 17  1  0  0  0
 16 42  1  0  0  0
 16 43  1  0  0  0
 17 18  1  0  0  0
 19 20  1  0  0  0
 19 21  1  0  0  0
 19 29  1  0  0  0
 21 22  2  0  0  0
 21 23  1  0  0  0
 23 24  2  0  0  0
 23 26  1  0  0  0
 24 25  1  0  0  0
 26 27  2  0  0  0
 26 28  1  0  0  0
 28 44  1  0  0  0
 28 45  1  0  0  0
 29 30  1  0  0  0
 29 31  1  0  0  0
 29 56  1  0  0  0
 30 46  1  0  0  0
 30 47  1  0  0  0
 30 48  1  0  0  0
 31 49  1  0  0  0
 31 50  1  0  0  0
 31 51  1  0  0  0
 32 52  1  0  0  0
 34 53  1  0  0  0
 35 54  1  0  0  0
M  CHG  2  25  -1  29   1
M  END
> <s_m_entry_id>
64

> <s_m_entry_name>
biosynth_p1.0.sdf.57

> <s_m_Source_Path>
/Users/Sebastito/Downloads

> <s_m_Source_File>
biosynth_p1.0.sdf.gz

> <i_m_Source_File_Index>
57

> <chiral flag>
1

> <version>
0

> <i_m_ct_enhanced_stereo_status>
0

> <s_m_source_file>
ligprep_vs.maegz

> <i_m_source_file_index>
57

> <i_lp_mmshare_version>
37011

> <r_epik_Ionization_Penalty>
2.21075

> <r_epik_Ionization_Penalty_Charging>
0.0496299

> <r_epik_Ionization_Penalty_Neutral>
2.16112

> <r_epik_State_Penalty>
2.31215

> <r_epik_Charging_Adjusted_Penalty>
2.36178

> <i_epik_Tot_Q>
0

> <i_epik_Tot_abs_Q>
2

> <i_f3d_flags>
0

> <s_lp_Force_Field>
OPLS_2005

> <r_lp_Energy>
55.5966

> <b_lp_Chiralities_Consistent>
1

> <s_lp_Variant>
ZINC18210358-3

$$$$
ZINC18152146
                    3D
 Structure written by MMmdl.
 55 58  0  0  1  0            999 V2000
   -1.1074    0.0212   -5.5399 C   0  0  0  0  0  0
   -0.6356    1.1573   -4.6052 C   0  0  1  0  0  0
   -1.3929    2.4330   -4.9687 C   0  0  0  0  0  0
   -0.8432    3.3230   -5.9213 C   0  0  0  0  0  0
   -1.4952    4.5215   -6.2417 C   0  0  0  0  0  0
   -2.6949    4.8476   -5.5957 C   0  0  0  0  0  0
   -3.2643    3.9696   -4.6535 C   0  0  0  0  0  0
   -2.6459    2.7123   -4.3521 C   0  0  0  0  0  0
   -3.2071    1.7068   -3.3828 C   0  0  0  0  0  0
   -4.4587    1.7532   -3.3320 O   0  5  0  0  0  0
   -2.3380    0.8154   -2.7494 C   0  0  0  0  0  0
   -2.7994   -0.1707   -1.7198 C   0  0  0  0  0  0
   -1.9058   -1.3796   -1.3455 C   0  0  1  0  0  0
   -0.4363   -0.9247   -1.2434 C   0  0  1  0  0  0
    0.1669   -1.8129   -1.0512 H   0  0  0  0  0  0
    0.0219   -0.3414   -2.5922 C   0  0  0  0  0  0
   -0.8387    0.8503   -3.0927 C   0  0  1  0  0  0
   -0.4724    1.7184   -2.5414 H   0  0  0  0  0  0
   -0.2220    0.0767   -0.0815 C   0  0  1  0  0  0
   -0.7484    0.9950   -0.3411 H   0  0  0  0  0  0
   -0.8309   -0.4184    1.2555 C   0  0  0  0  0  0
   -0.5294    0.1592    2.3020 O   0  0  0  0  0  0
   -1.8217   -1.5453    1.2210 C   0  0  0  0  0  0
   -2.3594   -2.0205    0.0106 C   0  0  0  0  0  0
   -3.1557   -2.9676   -0.2200 O   0  5  0  0  0  0
   -2.2930   -2.2097    2.4580 C   0  0  0  0  0  0
   -3.3616   -2.8037    2.5957 O   0  0  0  0  0  0
   -1.4337   -2.1781    3.4834 N   0  0  0  0  0  0
    1.2239    0.4412    0.0593 N   0  3  0  0  0  0
    2.1056   -0.5599    0.7121 C   0  0  0  0  0  0
    1.4533    1.8196    0.5501 C   0  0  0  0  0  0
   -1.9799   -2.3200   -2.4157 O   0  0  0  0  0  0
   -3.8799   -0.0411   -1.1416 O   0  0  0  0  0  0
   -4.4071    4.4090   -4.0438 O   0  0  0  0  0  0
    0.7611    1.2917   -4.8117 O   0  0  0  0  0  0
   -2.1664   -0.1980   -5.4006 H   0  0  0  0  0  0
   -0.5596   -0.9076   -5.3901 H   0  0  0  0  0  0
   -0.9720    0.2979   -6.5862 H   0  0  0  0  0  0
    0.0903    3.0985   -6.4157 H   0  0  0  0  0  0
   -1.0664    5.1978   -6.9662 H   0  0  0  0  0  0
   -3.1797    5.7863   -5.8218 H   0  0  0  0  0  0
    1.0666   -0.0368   -2.5303 H   0  0  0  0  0  0
    0.0282   -1.1444   -3.3255 H   0  0  0  0  0  0
   -0.5540   -1.6928    3.3875 H   0  0  0  0  0  0
   -1.6800   -2.6250    4.3544 H   0  0  0  0  0  0
    1.9486   -0.6027    1.7900 H   0  0  0  0  0  0
    3.1506   -0.2995    0.5435 H   0  0  0  0  0  0
    1.9509   -1.5581    0.3040 H   0  0  0  0  0  0
    1.1858    1.9296    1.6006 H   0  0  0  0  0  0
    0.8714    2.5371   -0.0293 H   0  0  0  0  0  0
    2.5044    2.0884    0.4431 H   0  0  0  0  0  0
   -2.8409   -2.7104   -2.3903 H   0  0  0  0  0  0
   -4.6998    5.2483   -4.3630 H   0  0  0  0  0  0
    1.1704    0.4654   -4.6065 H   0  0  0  0  0  0
    1.5452    0.4745   -0.8974 H   0  0  0  0  0  0
  1  2  1  0  0  0
  1 36  1  0  0  0
  1 37  1  0  0  0
  1 38  1  0  0  0
  2 17  1  0  0  0
  2  3  1  0  0  0
  2 35  1  0  0  0
  3  8  2  0  0  0
  3  4  1  0  0  0
  4  5  2  0  0  0
  4 39  1  0  0  0
  5  6  1  0  0  0
  5 40  1  0  0  0
  6  7  2  0  0  0
  6 41  1  0  0  0
  7  8  1  0  0  0
  7 34  1  0  0  0
  8  9  1  0  0  0
  9 10  1  0  0  0
  9 11  2  0  0  0
 11 17  1  0  0  0
 11 12  1  0  0  0
 12 13  1  0  0  0
 12 33  2  0  0  0
 13 24  1  0  0  0
 13 14  1  0  0  0
 13 32  1  0  0  0
 14 15  1  0  0  0
 14 16  1  0  0  0
 14 19  1  0  0  0
 16 17  1  0  0  0
 16 42  1  0  0  0
 16 43  1  0  0  0
 17 18  1  0  0  0
 19 20  1  0  0  0
 19 21  1  0  0  0
 19 29  1  0  0  0
 21 22  2  0  0  0
 21 23  1  0  0  0
 23 24  2  0  0  0
 23 26  1  0  0  0
 24 25  1  0  0  0
 26 27  2  0  0  0
 26 28  1  0  0  0
 28 44  1  0  0  0
 28 45  1  0  0  0
 29 30  1  0  0  0
 29 31  1  0  0  0
 29 55  1  0  0  0
 30 46  1  0  0  0
 30 47  1  0  0  0
 30 48  1  0  0  0
 31 49  1  0  0  0
 31 50  1  0  0  0
 31 51  1  0  0  0
 32 52  1  0  0  0
 34 53  1  0  0  0
 35 54  1  0  0  0
M  CHG  3  10  -1  25  -1  29   1
M  END
> <s_m_entry_id>
65

> <s_m_entry_name>
biosynth_p1.0.sdf.58

> <s_m_Source_Path>
/Users/Sebastito/Downloads

> <s_m_Source_File>
biosynth_p1.0.sdf.gz

> <i_m_Source_File_Index>
58

> <chiral flag>
1

> <version>
0

> <i_m_ct_enhanced_stereo_status>
0

> <s_m_source_file>
ligprep_vs.maegz

> <i_m_source_file_index>
58

> <i_lp_mmshare_version>
37011

> <r_epik_Ionization_Penalty>
0.0331856

> <r_epik_Ionization_Penalty_Charging>
0.0331571

> <r_epik_Ionization_Penalty_Neutral>
2.84823e-05

> <r_epik_State_Penalty>
0.0247693

> <r_epik_Charging_Adjusted_Penalty>
0.0579264

> <i_epik_Tot_Q>
-1

> <i_epik_Tot_abs_Q>
3

> <i_f3d_flags>
0

> <s_lp_Force_Field>
OPLS_2005

> <r_lp_Energy>
56.3882

> <b_lp_Chiralities_Consistent>
1

> <s_lp_Variant>
ZINC18152146-1

$$$$
ZINC18152146
                    3D
 Structure written by MMmdl.
 54 57  0  0  1  0            999 V2000
   -1.0893    4.7628    2.9154 C   0  0  0  0  0  0
   -0.6603    3.3641    3.4134 C   0  0  1  0  0  0
   -1.4632    3.0323    4.6700 C   0  0  0  0  0  0
   -0.9451    3.3815    5.9393 C   0  0  0  0  0  0
   -1.6390    3.0531    7.1118 C   0  0  0  0  0  0
   -2.8512    2.3566    7.0226 C   0  0  0  0  0  0
   -3.3908    2.0124    5.7682 C   0  0  0  0  0  0
   -2.7267    2.3857    4.5538 C   0  0  0  0  0  0
   -3.2513    2.0811    3.1761 C   0  0  0  0  0  0
   -4.5039    2.0350    3.1518 O   0  5  0  0  0  0
   -2.3509    1.9808    2.1126 C   0  0  0  0  0  0
   -2.7743    1.6079    0.7256 C   0  0  0  0  0  0
   -1.8526    1.9187   -0.4796 C   0  0  1  0  0  0
   -0.3862    1.5933   -0.1238 C   0  0  1  0  0  0
    0.2216    1.9294   -0.9649 H   0  0  0  0  0  0
    0.0402    2.4237    1.1009 C   0  0  0  0  0  0
   -0.8540    2.2356    2.3584 C   0  0  1  0  0  0
   -0.5110    1.3084    2.8210 H   0  0  0  0  0  0
   -0.1067    0.0798    0.0994 C   0  0  1  0  0  0
   -0.4668   -0.1425    1.1035 H   0  0  0  0  0  0
   -0.9328   -0.8396   -0.8408 C   0  0  0  0  0  0
   -0.8489   -2.0611   -0.6992 O   0  0  0  0  0  0
   -1.8107   -0.2196   -1.8839 C   0  0  0  0  0  0
   -2.2777    1.0970   -1.7427 C   0  0  0  0  0  0
   -2.9871    1.8094   -2.5004 O   0  5  0  0  0  0
   -2.2492   -0.9674   -3.0840 C   0  0  0  0  0  0
   -3.2182   -0.6964   -3.7927 O   0  0  0  0  0  0
   -1.4693   -2.0016   -3.4217 N   0  0  0  0  0  0
    1.3652   -0.1661    0.0971 N   0  0  0  0  0  0
    1.9665   -0.3247   -1.2276 C   0  0  0  0  0  0
    1.7401   -1.2923    0.9468 C   0  0  0  0  0  0
   -1.9244    3.3239   -0.7196 O   0  0  0  0  0  0
   -3.8529    1.0520    0.5088 O   0  0  0  0  0  0
   -4.5526    1.2905    5.7980 O   0  0  0  0  0  0
    0.7311    3.4421    3.6787 O   0  0  0  0  0  0
   -2.1395    4.7779    2.6223 H   0  0  0  0  0  0
   -0.5074    5.1095    2.0631 H   0  0  0  0  0  0
   -0.9647    5.5090    3.7008 H   0  0  0  0  0  0
   -0.0033    3.9023    6.0288 H   0  0  0  0  0  0
   -1.2321    3.3167    8.0767 H   0  0  0  0  0  0
   -3.3687    2.0779    7.9289 H   0  0  0  0  0  0
    1.0754    2.1949    1.3547 H   0  0  0  0  0  0
    0.0675    3.4688    0.8029 H   0  0  0  0  0  0
   -0.6739   -2.2353   -2.8455 H   0  0  0  0  0  0
   -1.6916   -2.5524   -4.2377 H   0  0  0  0  0  0
    3.0540   -0.3295   -1.1480 H   0  0  0  0  0  0
    1.6968    0.4987   -1.8885 H   0  0  0  0  0  0
    1.6681   -1.2563   -1.7099 H   0  0  0  0  0  0
    2.8251   -1.3579    1.0348 H   0  0  0  0  0  0
    1.3797   -2.2448    0.5589 H   0  0  0  0  0  0
    1.3435   -1.1623    1.9544 H   0  0  0  0  0  0
   -2.7741    3.5024   -1.0933 H   0  0  0  0  0  0
   -4.8713    1.1356    6.6733 H   0  0  0  0  0  0
    1.1764    3.6198    2.8646 H   0  0  0  0  0  0
  1  2  1  0  0  0
  1 36  1  0  0  0
  1 37  1  0  0  0
  1 38  1  0  0  0
  2 17  1  0  0  0
  2  3  1  0  0  0
  2 35  1  0  0  0
  3  8  2  0  0  0
  3  4  1  0  0  0
  4  5  2  0  0  0
  4 39  1  0  0  0
  5  6  1  0  0  0
  5 40  1  0  0  0
  6  7  2  0  0  0
  6 41  1  0  0  0
  7  8  1  0  0  0
  7 34  1  0  0  0
  8  9  1  0  0  0
  9 10  1  0  0  0
  9 11  2  0  0  0
 11 17  1  0  0  0
 11 12  1  0  0  0
 12 13  1  0  0  0
 12 33  2  0  0  0
 13 24  1  0  0  0
 13 14  1  0  0  0
 13 32  1  0  0  0
 14 15  1  0  0  0
 14 16  1  0  0  0
 14 19  1  0  0  0
 16 17  1  0  0  0
 16 42  1  0  0  0
 16 43  1  0  0  0
 17 18  1  0  0  0
 19 20  1  0  0  0
 19 21  1  0  0  0
 19 29  1  0  0  0
 21 22  2  0  0  0
 21 23  1  0  0  0
 23 24  2  0  0  0
 23 26  1  0  0  0
 24 25  1  0  0  0
 26 27  2  0  0  0
 26 28  1  0  0  0
 28 44  1  0  0  0
 28 45  1  0  0  0
 29 30  1  0  0  0
 29 31  1  0  0  0
 30 46  1  0  0  0
 30 47  1  0  0  0
 30 48  1  0  0  0
 31 49  1  0  0  0
 31 50  1  0  0  0
 31 51  1  0  0  0
 32 52  1  0  0  0
 34 53  1  0  0  0
 35 54  1  0  0  0
M  CHG  2  10  -1  25  -1
M  END
> <s_m_entry_id>
65

> <s_m_entry_name>
biosynth_p1.0.sdf.58

> <s_m_Source_Path>
/Users/Sebastito/Downloads

> <s_m_Source_File>
biosynth_p1.0.sdf.gz

> <i_m_Source_File_Index>
58

> <chiral flag>
1

> <version>
0

> <i_m_ct_enhanced_stereo_status>
0

> <s_m_source_file>
ligprep_vs.maegz

> <i_m_source_file_index>
58

> <i_lp_mmshare_version>
37011

> <r_epik_Ionization_Penalty>
2.17127

> <r_epik_Ionization_Penalty_Charging>
0.0265245

> <r_epik_Ionization_Penalty_Neutral>
2.14474

> <r_epik_State_Penalty>
2.29596

> <r_epik_Charging_Adjusted_Penalty>
2.32248

> <i_epik_Tot_Q>
-2

> <i_epik_Tot_abs_Q>
2

> <i_f3d_flags>
0

> <s_lp_Force_Field>
OPLS_2005

> <r_lp_Energy>
68.7141

> <b_lp_Chiralities_Consistent>
1

> <s_lp_Variant>
ZINC18152146-2

$$$$
ZINC18152146
                    3D
 Structure written by MMmdl.
 56 59  0  0  1  0            999 V2000
   -0.7988    0.3634   -5.5115 C   0  0  0  0  0  0
   -0.4825    1.4455   -4.4545 C   0  0  1  0  0  0
   -1.3129    2.6846   -4.7998 C   0  0  0  0  0  0
   -0.8019    3.6352   -5.7141 C   0  0  0  0  0  0
   -1.5475    4.7734   -6.0557 C   0  0  0  0  0  0
   -2.8105    4.9736   -5.4796 C   0  0  0  0  0  0
   -3.3402    4.0343   -4.5742 C   0  0  0  0  0  0
   -2.6080    2.8560   -4.2395 C   0  0  0  0  0  0
   -3.1000    1.8262   -3.2819 C   0  0  0  0  0  0
   -4.4335    1.7645   -3.1285 O   0  0  0  0  0  0
   -2.2584    0.9499   -2.6768 C   0  0  0  0  0  0
   -2.7487   -0.0202   -1.6471 C   0  0  0  0  0  0
   -1.9257   -1.3020   -1.3713 C   0  0  1  0  0  0
   -0.4257   -0.9442   -1.2711 C   0  0  1  0  0  0
    0.1221   -1.8816   -1.1659 H   0  0  0  0  0  0
    0.0479   -0.2841   -2.5827 C   0  0  0  0  0  0
   -0.7533    0.9850   -2.9863 C   0  0  1  0  0  0
   -0.3891    1.7833   -2.3368 H   0  0  0  0  0  0
   -0.1170   -0.0612   -0.0363 C   0  0  1  0  0  0
   -0.5907    0.9062   -0.2006 H   0  0  0  0  0  0
   -0.7205   -0.6348    1.2711 C   0  0  0  0  0  0
   -0.3222   -0.2128    2.3586 O   0  0  0  0  0  0
   -1.8202   -1.6426    1.1729 C   0  0  0  0  0  0
   -2.4075   -2.0003   -0.0559 C   0  0  0  0  0  0
   -3.2769   -2.8649   -0.3396 O   0  5  0  0  0  0
   -2.2482   -2.3081    2.4209 C   0  0  0  0  0  0
   -1.5264   -2.5181    3.3955 O   0  0  0  0  0  0
   -3.5439   -2.6356    2.4765 N   0  0  0  0  0  0
    1.3537    0.1989    0.0911 N   0  3  0  0  0  0
    2.1886   -0.9106    0.6196 C   0  0  0  0  0  0
    1.6849    1.5080    0.6998 C   0  0  0  0  0  0
   -2.0716   -2.1619   -2.5003 O   0  0  0  0  0  0
   -3.7722    0.1807   -0.9895 O   0  0  0  0  0  0
   -4.5602    4.3253   -4.0313 O   0  0  0  0  0  0
    0.9098    1.6977   -4.5472 O   0  0  0  0  0  0
   -1.8371    0.0360   -5.4461 H   0  0  0  0  0  0
   -0.1667   -0.5190   -5.4258 H   0  0  0  0  0  0
   -0.6461    0.7493   -6.5202 H   0  0  0  0  0  0
    0.1683    3.4984   -6.1685 H   0  0  0  0  0  0
   -1.1476    5.4953   -6.7523 H   0  0  0  0  0  0
   -3.3738    5.8603   -5.7319 H   0  0  0  0  0  0
    1.1090   -0.0436   -2.5206 H   0  0  0  0  0  0
   -0.0059   -1.0369   -3.3646 H   0  0  0  0  0  0
   -4.1355   -2.4657    1.6754 H   0  0  0  0  0  0
   -3.9186   -3.0732    3.3052 H   0  0  0  0  0  0
    2.0678   -1.0392    1.6954 H   0  0  0  0  0  0
    3.2423   -0.7021    0.4330 H   0  0  0  0  0  0
    1.9558   -1.8575    0.1339 H   0  0  0  0  0  0
    1.4558    1.5334    1.7647 H   0  0  0  0  0  0
    1.1343    2.3123    0.2108 H   0  0  0  0  0  0
    2.7478    1.7208    0.5824 H   0  0  0  0  0  0
   -2.9273   -2.5614   -2.4473 H   0  0  0  0  0  0
   -4.9247    5.1365   -4.3504 H   0  0  0  0  0  0
    1.3719    0.8872   -4.3987 H   0  0  0  0  0  0
   -4.6177    1.0705   -2.5131 H   0  0  0  0  0  0
    1.6536    0.3016   -0.8675 H   0  0  0  0  0  0
  1  2  1  0  0  0
  1 36  1  0  0  0
  1 37  1  0  0  0
  1 38  1  0  0  0
  2 17  1  0  0  0
  2  3  1  0  0  0
  2 35  1  0  0  0
  3  8  2  0  0  0
  3  4  1  0  0  0
  4  5  2  0  0  0
  4 39  1  0  0  0
  5  6  1  0  0  0
  5 40  1  0  0  0
  6  7  2  0  0  0
  6 41  1  0  0  0
  7  8  1  0  0  0
  7 34  1  0  0  0
  8  9  1  0  0  0
  9 10  1  0  0  0
  9 11  2  0  0  0
 10 55  1  0  0  0
 11 17  1  0  0  0
 11 12  1  0  0  0
 12 13  1  0  0  0
 12 33  2  0  0  0
 13 24  1  0  0  0
 13 14  1  0  0  0
 13 32  1  0  0  0
 14 15  1  0  0  0
 14 16  1  0  0  0
 14 19  1  0  0  0
 16 17  1  0  0  0
 16 42  1  0  0  0
 16 43  1  0  0  0
 17 18  1  0  0  0
 19 20  1  0  0  0
 19 21  1  0  0  0
 19 29  1  0  0  0
 21 22  2  0  0  0
 21 23  1  0  0  0
 23 24  2  0  0  0
 23 26  1  0  0  0
 24 25  1  0  0  0
 26 27  2  0  0  0
 26 28  1  0  0  0
 28 44  1  0  0  0
 28 45  1  0  0  0
 29 30  1  0  0  0
 29 31  1  0  0  0
 29 56  1  0  0  0
 30 46  1  0  0  0
 30 47  1  0  0  0
 30 48  1  0  0  0
 31 49  1  0  0  0
 31 50  1  0  0  0
 31 51  1  0  0  0
 32 52  1  0  0  0
 34 53  1  0  0  0
 35 54  1  0  0  0
M  CHG  2  25  -1  29   1
M  END
> <s_m_entry_id>
65

> <s_m_entry_name>
biosynth_p1.0.sdf.58

> <s_m_Source_Path>
/Users/Sebastito/Downloads

> <s_m_Source_File>
biosynth_p1.0.sdf.gz

> <i_m_Source_File_Index>
58

> <chiral flag>
1

> <version>
0

> <i_m_ct_enhanced_stereo_status>
0

> <s_m_source_file>
ligprep_vs.maegz

> <i_m_source_file_index>
58

> <i_lp_mmshare_version>
37011

> <r_epik_Ionization_Penalty>
2.21075

> <r_epik_Ionization_Penalty_Charging>
0.0496299

> <r_epik_Ionization_Penalty_Neutral>
2.16112

> <r_epik_State_Penalty>
2.31215

> <r_epik_Charging_Adjusted_Penalty>
2.36178

> <i_epik_Tot_Q>
0

> <i_epik_Tot_abs_Q>
2

> <i_f3d_flags>
0

> <s_lp_Force_Field>
OPLS_2005

> <r_lp_Energy>
46.5158

> <b_lp_Chiralities_Consistent>
1

> <s_lp_Variant>
ZINC18152146-3

$$$$
ZINC19606973
                    3D
 Structure written by MMmdl.
 37 38  0  0  1  0            999 V2000
   -2.3024    1.1926   -5.3080 C   0  0  0  0  0  0
   -2.9455    0.4666   -6.3294 C   0  0  0  0  0  0
   -2.2274   -0.4885   -7.0746 C   0  0  0  0  0  0
   -0.8654   -0.7168   -6.7986 C   0  0  0  0  0  0
   -0.2211    0.0094   -5.7777 C   0  0  0  0  0  0
   -0.9384    0.9655   -5.0271 C   0  0  0  0  0  0
   -0.2499    1.7519   -3.9249 C   0  0  0  0  0  0
   -0.5897    1.2411   -2.5741 N   0  3  0  0  0  0
   -0.2312    2.2027   -1.5006 C   0  0  0  0  0  0
   -0.6748    1.6620   -0.1263 C   0  0  0  0  0  0
   -0.1081    0.3511    0.1876 N   0  0  0  0  0  0
   -0.4692   -0.5805   -0.8846 C   0  0  0  0  0  0
   -0.0290   -0.1061   -2.2849 C   0  0  0  0  0  0
    1.3264    0.4113    0.4938 C   0  0  0  0  0  0
    1.9224   -0.8636    1.1164 C   0  0  0  0  0  0
    1.4442   -1.0257    2.4346 O   0  0  0  0  0  0
   -2.8460   -1.1867   -8.0558 F   0  0  0  0  0  0
   -2.8599    1.9237   -4.7406 H   0  0  0  0  0  0
   -3.9898    0.6427   -6.5421 H   0  0  0  0  0  0
   -0.3148   -1.4493   -7.3705 H   0  0  0  0  0  0
    0.8238   -0.1723   -5.5727 H   0  0  0  0  0  0
    0.8320    1.7431   -4.0679 H   0  0  0  0  0  0
   -0.5652    2.7926   -4.0126 H   0  0  0  0  0  0
    0.8423    2.3959   -1.5161 H   0  0  0  0  0  0
   -0.7246    3.1573   -1.6870 H   0  0  0  0  0  0
   -0.4129    2.3758    0.6557 H   0  0  0  0  0  0
   -1.7633    1.5912   -0.1093 H   0  0  0  0  0  0
   -0.0675   -1.5726   -0.6844 H   0  0  0  0  0  0
   -1.5528   -0.7066   -0.8871 H   0  0  0  0  0  0
   -0.3834   -0.8230   -3.0254 H   0  0  0  0  0  0
    1.0583   -0.0848   -2.3668 H   0  0  0  0  0  0
    1.8889    0.6526   -0.4075 H   0  0  0  0  0  0
    1.5130    1.2374    1.1817 H   0  0  0  0  0  0
    1.7125   -1.7563    0.5289 H   0  0  0  0  0  0
    3.0077   -0.7709    1.1650 H   0  0  0  0  0  0
    1.8429   -1.7970    2.8080 H   0  0  0  0  0  0
   -1.5950    1.1492   -2.5451 H   0  0  0  0  0  0
  1  6  2  0  0  0
  1  2  1  0  0  0
  1 18  1  0  0  0
  2  3  2  0  0  0
  2 19  1  0  0  0
  3  4  1  0  0  0
  3 17  1  0  0  0
  4  5  2  0  0  0
  4 20  1  0  0  0
  5  6  1  0  0  0
  5 21  1  0  0  0
  6  7  1  0  0  0
  7  8  1  0  0  0
  7 22  1  0  0  0
  7 23  1  0  0  0
  8 13  1  0  0  0
  8  9  1  0  0  0
  8 37  1  0  0  0
  9 10  1  0  0  0
  9 24  1  0  0  0
  9 25  1  0  0  0
 10 11  1  0  0  0
 10 26  1  0  0  0
 10 27  1  0  0  0
 11 12  1  0  0  0
 11 14  1  0  0  0
 12 13  1  0  0  0
 12 28  1  0  0  0
 12 29  1  0  0  0
 13 30  1  0  0  0
 13 31  1  0  0  0
 14 15  1  0  0  0
 14 32  1  0  0  0
 14 33  1  0  0  0
 15 16  1  0  0  0
 15 34  1  0  0  0
 15 35  1  0  0  0
 16 36  1  0  0  0
M  CHG  1   8   1
M  END
> <s_m_entry_id>
66

> <s_m_entry_name>
biosynth_p1.0.sdf.59

> <s_m_Source_Path>
/Users/Sebastito/Downloads

> <s_m_Source_File>
biosynth_p1.0.sdf.gz

> <i_m_Source_File_Index>
59

> <chiral flag>
0

> <version>
0

> <i_m_ct_enhanced_stereo_status>
0

> <s_m_source_file>
ligprep_vs.maegz

> <i_m_source_file_index>
59

> <i_lp_mmshare_version>
37011

> <r_epik_Ionization_Penalty>
0.0587309

> <r_epik_Ionization_Penalty_Charging>
0.0180688

> <r_epik_Ionization_Penalty_Neutral>
0.0406622

> <r_epik_State_Penalty>
0.215382

> <r_epik_Charging_Adjusted_Penalty>
0.23345

> <i_epik_Tot_Q>
1

> <i_epik_Tot_abs_Q>
1

> <i_f3d_flags>
0

> <s_lp_Force_Field>
OPLS_2005

> <r_lp_Energy>
29.8343

> <b_lp_Chiralities_Consistent>
1

> <s_lp_Variant>
ZINC19606973-1

$$$$
ZINC19606973
                    3D
 Structure written by MMmdl.
 37 38  0  0  1  0            999 V2000
   -3.1196    1.2575   -4.2416 C   0  0  0  0  0  0
   -4.1011    1.0068   -5.2206 C   0  0  0  0  0  0
   -5.4366    1.3932   -4.9947 C   0  0  0  0  0  0
   -5.7907    2.0301   -3.7894 C   0  0  0  0  0  0
   -4.8100    2.2803   -2.8098 C   0  0  0  0  0  0
   -3.4713    1.8948   -3.0329 C   0  0  0  0  0  0
   -2.4163    2.1607   -1.9742 C   0  0  0  0  0  0
   -2.5578    1.3208   -0.7831 N   0  0  0  0  0  0
   -2.3742   -0.1137   -1.0278 C   0  0  0  0  0  0
   -0.9091   -0.4691   -1.3573 C   0  0  0  0  0  0
   -0.0090   -0.0369   -0.2589 N   0  3  0  0  0  0
   -0.1889    1.4108    0.0073 C   0  0  0  0  0  0
   -1.6689    1.7325    0.3057 C   0  0  0  0  0  0
    1.4154   -0.3987   -0.4727 C   0  0  0  0  0  0
    1.6881   -1.8994   -0.2719 C   0  0  0  0  0  0
    1.4403   -2.2625    1.0700 O   0  0  0  0  0  0
   -6.3797    1.1525   -5.9361 F   0  0  0  0  0  0
   -2.0979    0.9562   -4.4201 H   0  0  0  0  0  0
   -3.8294    0.5185   -6.1450 H   0  0  0  0  0  0
   -6.8147    2.3267   -3.6160 H   0  0  0  0  0  0
   -5.0870    2.7675   -1.8863 H   0  0  0  0  0  0
   -1.4262    2.0606   -2.4177 H   0  0  0  0  0  0
   -2.5112    3.2060   -1.6772 H   0  0  0  0  0  0
   -2.6870   -0.6580   -0.1357 H   0  0  0  0  0  0
   -3.0342   -0.4470   -1.8288 H   0  0  0  0  0  0
   -0.8399   -1.5475   -1.4934 H   0  0  0  0  0  0
   -0.5973   -0.0187   -2.3003 H   0  0  0  0  0  0
    0.4145    1.6964    0.8698 H   0  0  0  0  0  0
    0.1801    1.9956   -0.8362 H   0  0  0  0  0  0
   -1.7942    2.7986    0.4982 H   0  0  0  0  0  0
   -1.9764    1.2190    1.2178 H   0  0  0  0  0  0
    1.7211   -0.0902   -1.4737 H   0  0  0  0  0  0
    2.0431    0.1600    0.2236 H   0  0  0  0  0  0
    1.0919   -2.5206   -0.9392 H   0  0  0  0  0  0
    2.7333   -2.1155   -0.4953 H   0  0  0  0  0  0
    1.6622   -3.1750    1.1817 H   0  0  0  0  0  0
   -0.3057   -0.5200    0.5774 H   0  0  0  0  0  0
  1  6  2  0  0  0
  1  2  1  0  0  0
  1 18  1  0  0  0
  2  3  2  0  0  0
  2 19  1  0  0  0
  3  4  1  0  0  0
  3 17  1  0  0  0
  4  5  2  0  0  0
  4 20  1  0  0  0
  5  6  1  0  0  0
  5 21  1  0  0  0
  6  7  1  0  0  0
  7  8  1  0  0  0
  7 22  1  0  0  0
  7 23  1  0  0  0
  8 13  1  0  0  0
  8  9  1  0  0  0
  9 10  1  0  0  0
  9 24  1  0  0  0
  9 25  1  0  0  0
 10 11  1  0  0  0
 10 26  1  0  0  0
 10 27  1  0  0  0
 11 12  1  0  0  0
 11 14  1  0  0  0
 11 37  1  0  0  0
 12 13  1  0  0  0
 12 28  1  0  0  0
 12 29  1  0  0  0
 13 30  1  0  0  0
 13 31  1  0  0  0
 14 15  1  0  0  0
 14 32  1  0  0  0
 14 33  1  0  0  0
 15 16  1  0  0  0
 15 34  1  0  0  0
 15 35  1  0  0  0
 16 36  1  0  0  0
M  CHG  1  11   1
M  END
> <s_m_entry_id>
66

> <s_m_entry_name>
biosynth_p1.0.sdf.59

> <s_m_Source_Path>
/Users/Sebastito/Downloads

> <s_m_Source_File>
biosynth_p1.0.sdf.gz

> <i_m_Source_File_Index>
59

> <chiral flag>
0

> <version>
0

> <i_m_ct_enhanced_stereo_status>
0

> <s_m_source_file>
ligprep_vs.maegz

> <i_m_source_file_index>
59

> <i_lp_mmshare_version>
37011

> <r_epik_Ionization_Penalty>
0.143147

> <r_epik_Ionization_Penalty_Charging>
0.0946311

> <r_epik_Ionization_Penalty_Neutral>
0.0485164

> <r_epik_State_Penalty>
0.8175

> <r_epik_Charging_Adjusted_Penalty>
0.912131

> <i_epik_Tot_Q>
1

> <i_epik_Tot_abs_Q>
1

> <i_f3d_flags>
0

> <s_lp_Force_Field>
OPLS_2005

> <r_lp_Energy>
22.1547

> <b_lp_Chiralities_Consistent>
1

> <s_lp_Variant>
ZINC19606973-2

$$$$
ZINC19606973
                    3D
 Structure written by MMmdl.
 38 39  0  0  1  0            999 V2000
   -5.2632    2.7821   -0.2270 C   0  0  0  0  0  0
   -5.8236    4.0592   -0.4253 C   0  0  0  0  0  0
   -5.7876    4.6549   -1.7008 C   0  0  0  0  0  0
   -5.1899    3.9733   -2.7786 C   0  0  0  0  0  0
   -4.6292    2.6963   -2.5816 C   0  0  0  0  0  0
   -4.6627    2.0966   -1.3047 C   0  0  0  0  0  0
   -4.0604    0.7180   -1.0970 C   0  0  0  0  0  0
   -2.5768    0.7480   -1.0543 N   0  3  2  0  0  0
   -1.9897   -0.6094   -1.1706 C   0  0  0  0  0  0
   -0.4524   -0.5533   -1.2104 C   0  0  0  0  0  0
    0.0867    0.1576   -0.0255 N   0  3  2  0  0  0
   -0.4911    1.5214    0.0816 C   0  0  0  0  0  0
   -2.0291    1.4704    0.1231 C   0  0  0  0  0  0
    1.5710    0.1349    0.0245 C   0  0  0  0  0  0
    2.1143    0.3233    1.4514 C   0  0  0  0  0  0
    1.7117   -0.7581    2.2652 O   0  0  0  0  0  0
   -6.3273    5.8817   -1.8909 F   0  0  0  0  0  0
   -5.2974    2.3328    0.7547 H   0  0  0  0  0  0
   -6.2837    4.5812    0.4010 H   0  0  0  0  0  0
   -5.1634    4.4298   -3.7572 H   0  0  0  0  0  0
   -4.1741    2.1793   -3.4139 H   0  0  0  0  0  0
   -4.4515    0.2669   -0.1835 H   0  0  0  0  0  0
   -4.3905    0.0840   -1.9213 H   0  0  0  0  0  0
   -2.3193   -1.2212   -0.3290 H   0  0  0  0  0  0
   -2.3575   -1.0929   -2.0765 H   0  0  0  0  0  0
   -0.0570   -1.5694   -1.2430 H   0  0  0  0  0  0
   -0.1175   -0.0520   -2.1201 H   0  0  0  0  0  0
   -0.1277    2.0191    0.9800 H   0  0  0  0  0  0
   -0.1621    2.1240   -0.7667 H   0  0  0  0  0  0
   -2.4136    2.4900    0.1528 H   0  0  0  0  0  0
   -2.3621    0.9796    1.0392 H   0  0  0  0  0  0
    1.9385   -0.8194   -0.3562 H   0  0  0  0  0  0
    1.9720    0.9016   -0.6403 H   0  0  0  0  0  0
    3.2042    0.3487    1.4307 H   0  0  0  0  0  0
    1.7866    1.2616    1.8976 H   0  0  0  0  0  0
    2.1115   -0.6612    3.1169 H   0  0  0  0  0  0
   -2.2818    1.2592   -1.8743 H   0  0  0  0  0  0
   -0.2238   -0.3634    0.7829 H   0  0  0  0  0  0
  1  6  2  0  0  0
  1  2  1  0  0  0
  1 18  1  0  0  0
  2  3  2  0  0  0
  2 19  1  0  0  0
  3  4  1  0  0  0
  3 17  1  0  0  0
  4  5  2  0  0  0
  4 20  1  0  0  0
  5  6  1  0  0  0
  5 21  1  0  0  0
  6  7  1  0  0  0
  7  8  1  0  0  0
  7 22  1  0  0  0
  7 23  1  0  0  0
  8 13  1  0  0  0
  8  9  1  0  0  0
  8 37  1  0  0  0
  9 10  1  0  0  0
  9 24  1  0  0  0
  9 25  1  0  0  0
 10 11  1  0  0  0
 10 26  1  0  0  0
 10 27  1  0  0  0
 11 12  1  0  0  0
 11 14  1  0  0  0
 11 38  1  0  0  0
 12 13  1  0  0  0
 12 28  1  0  0  0
 12 29  1  0  0  0
 13 30  1  0  0  0
 13 31  1  0  0  0
 14 15  1  0  0  0
 14 32  1  0  0  0
 14 33  1  0  0  0
 15 16  1  0  0  0
 15 34  1  0  0  0
 15 35  1  0  0  0
 16 36  1  0  0  0
M  CHG  2   8   1  11   1
M  END
> <s_m_entry_id>
66

> <s_m_entry_name>
biosynth_p1.0.sdf.59

> <s_m_Source_Path>
/Users/Sebastito/Downloads

> <s_m_Source_File>
biosynth_p1.0.sdf.gz

> <i_m_Source_File_Index>
59

> <chiral flag>
0

> <version>
0

> <i_m_ct_enhanced_stereo_status>
0

> <s_m_source_file>
ligprep_vs.maegz

> <i_m_source_file_index>
59

> <i_lp_mmshare_version>
37011

> <r_epik_Ionization_Penalty>
3.11426

> <r_epik_Ionization_Penalty_Charging>
3.11425

> <r_epik_Ionization_Penalty_Neutral>
8.00291e-06

> <r_epik_State_Penalty>
2.13044

> <r_epik_Charging_Adjusted_Penalty>
5.24469

> <i_epik_Tot_Q>
2

> <i_epik_Tot_abs_Q>
2

> <i_f3d_flags>
0

> <s_lp_Force_Field>
OPLS_2005

> <r_lp_Energy>
21.2439

> <b_lp_Chiralities_Consistent>
1

> <s_lp_Variant>
ZINC19606973-3

$$$$
ZINC19606973
                    3D
 Structure written by MMmdl.
 38 39  0  0  1  0            999 V2000
   -2.2912    4.0180    2.6027 C   0  0  0  0  0  0
   -2.9589    5.2525    2.7234 C   0  0  0  0  0  0
   -4.3621    5.2869    2.8367 C   0  0  0  0  0  0
   -5.0979    4.0861    2.8293 C   0  0  0  0  0  0
   -4.4312    2.8511    2.7086 C   0  0  0  0  0  0
   -3.0254    2.8123    2.5932 C   0  0  0  0  0  0
   -2.3095    1.4788    2.4666 C   0  0  0  0  0  0
   -2.4331    0.8946    1.1044 N   0  3  2  0  0  0
   -2.0374   -0.5346    1.0406 C   0  0  0  0  0  0
   -0.5055   -0.7089    1.0551 C   0  0  0  0  0  0
    0.1375    0.0740   -0.0304 N   0  3  1  0  0  0
   -0.2453    1.5084    0.0357 C   0  0  0  0  0  0
   -1.7772    1.6770    0.0238 C   0  0  0  0  0  0
    1.6054   -0.1459   -0.0923 C   0  0  0  0  0  0
    2.1939    0.1723   -1.4775 C   0  0  0  0  0  0
    1.6588   -0.7092   -2.4418 O   0  0  0  0  0  0
   -5.0033    6.4736    2.9535 F   0  0  0  0  0  0
   -1.2145    4.0019    2.5172 H   0  0  0  0  0  0
   -2.3950    6.1737    2.7305 H   0  0  0  0  0  0
   -6.1741    4.1125    2.9177 H   0  0  0  0  0  0
   -5.0030    1.9346    2.7051 H   0  0  0  0  0  0
   -1.2621    1.5888    2.7491 H   0  0  0  0  0  0
   -2.7519    0.7973    3.1946 H   0  0  0  0  0  0
   -2.4957   -1.0924    1.8582 H   0  0  0  0  0  0
   -2.4404   -0.9603    0.1205 H   0  0  0  0  0  0
   -0.0947   -0.4038    2.0188 H   0  0  0  0  0  0
   -0.2664   -1.7662    0.9332 H   0  0  0  0  0  0
    0.1808    1.9617    0.9317 H   0  0  0  0  0  0
    0.1719    2.0488   -0.8131 H   0  0  0  0  0  0
   -2.1675    1.3238   -0.9317 H   0  0  0  0  0  0
   -2.0475    2.7310    0.0818 H   0  0  0  0  0  0
    2.0968    0.4531    0.6758 H   0  0  0  0  0  0
    1.8323   -1.1870    0.1434 H   0  0  0  0  0  0
    2.0109    1.2032   -1.7782 H   0  0  0  0  0  0
    3.2759    0.0395   -1.4565 H   0  0  0  0  0  0
    2.0874   -0.5477   -3.2696 H   0  0  0  0  0  0
   -3.4236    0.9158    0.9050 H   0  0  0  0  0  0
   -0.2322   -0.2918   -0.8971 H   0  0  0  0  0  0
  1  6  2  0  0  0
  1  2  1  0  0  0
  1 18  1  0  0  0
  2  3  2  0  0  0
  2 19  1  0  0  0
  3  4  1  0  0  0
  3 17  1  0  0  0
  4  5  2  0  0  0
  4 20  1  0  0  0
  5  6  1  0  0  0
  5 21  1  0  0  0
  6  7  1  0  0  0
  7  8  1  0  0  0
  7 22  1  0  0  0
  7 23  1  0  0  0
  8 13  1  0  0  0
  8  9  1  0  0  0
  8 37  1  0  0  0
  9 10  1  0  0  0
  9 24  1  0  0  0
  9 25  1  0  0  0
 10 11  1  0  0  0
 10 26  1  0  0  0
 10 27  1  0  0  0
 11 12  1  0  0  0
 11 14  1  0  0  0
 11 38  1  0  0  0
 12 13  1  0  0  0
 12 28  1  0  0  0
 12 29  1  0  0  0
 13 30  1  0  0  0
 13 31  1  0  0  0
 14 15  1  0  0  0
 14 32  1  0  0  0
 14 33  1  0  0  0
 15 16  1  0  0  0
 15 34  1  0  0  0
 15 35  1  0  0  0
 16 36  1  0  0  0
M  CHG  2   8   1  11   1
M  END
> <s_m_entry_id>
66

> <s_m_entry_name>
biosynth_p1.0.sdf.59

> <s_m_Source_Path>
/Users/Sebastito/Downloads

> <s_m_Source_File>
biosynth_p1.0.sdf.gz

> <i_m_Source_File_Index>
59

> <chiral flag>
0

> <version>
0

> <i_m_ct_enhanced_stereo_status>
0

> <s_m_source_file>
ligprep_vs.maegz

> <i_m_source_file_index>
59

> <i_lp_mmshare_version>
37011

> <r_epik_Ionization_Penalty>
3.11426

> <r_epik_Ionization_Penalty_Charging>
3.11425

> <r_epik_Ionization_Penalty_Neutral>
8.00291e-06

> <r_epik_State_Penalty>
2.13044

> <r_epik_Charging_Adjusted_Penalty>
5.24469

> <i_epik_Tot_Q>
2

> <i_epik_Tot_abs_Q>
2

> <i_f3d_flags>
0

> <s_lp_Force_Field>
OPLS_2005

> <r_lp_Energy>
23.4247

> <b_lp_Chiralities_Consistent>
1

> <s_lp_Variant>
ZINC19606973-4

$$$$
ZINC19606973
                    3D
 Structure written by MMmdl.
 36 37  0  0  1  0            999 V2000
   -4.1961    2.8469    3.0063 C   0  0  0  0  0  0
   -4.6401    3.1880    4.2988 C   0  0  0  0  0  0
   -5.4090    2.2733    5.0441 C   0  0  0  0  0  0
   -5.7338    1.0171    4.4964 C   0  0  0  0  0  0
   -5.2898    0.6751    3.2040 C   0  0  0  0  0  0
   -4.5184    1.5884    2.4551 C   0  0  0  0  0  0
   -4.0386    1.2199    1.0617 C   0  0  0  0  0  0
   -2.5838    1.1706    0.9355 N   0  0  0  0  0  0
   -2.1813    0.9937   -0.4588 C   0  0  0  0  0  0
   -0.6487    0.9598   -0.6073 C   0  0  0  0  0  0
   -0.0547   -0.1219    0.1844 N   0  0  0  0  0  0
   -0.4606    0.0564    1.5790 C   0  0  0  0  0  0
   -1.9926    0.0889    1.7270 C   0  0  0  0  0  0
    1.4036   -0.1719    0.0696 C   0  0  0  0  0  0
    1.9470   -0.6023   -1.3045 C   0  0  0  0  0  0
    1.7155   -1.9798   -1.5092 O   0  0  0  0  0  0
   -5.8359    2.6014    6.2865 F   0  0  0  0  0  0
   -3.6054    3.5513    2.4390 H   0  0  0  0  0  0
   -4.3904    4.1515    4.7182 H   0  0  0  0  0  0
   -6.3234    0.3155    5.0676 H   0  0  0  0  0  0
   -5.5412   -0.2907    2.7912 H   0  0  0  0  0  0
   -4.4741    0.2653    0.7622 H   0  0  0  0  0  0
   -4.4389    1.9677    0.3758 H   0  0  0  0  0  0
   -2.6077    0.0714   -0.8571 H   0  0  0  0  0  0
   -2.5815    1.8081   -1.0636 H   0  0  0  0  0  0
   -0.4102    0.8331   -1.6622 H   0  0  0  0  0  0
   -0.2293    1.9205   -0.3044 H   0  0  0  0  0  0
   -0.0624   -0.7582    2.1851 H   0  0  0  0  0  0
   -0.0352    0.9785    1.9783 H   0  0  0  0  0  0
   -2.2406    0.2160    2.7809 H   0  0  0  0  0  0
   -2.4116   -0.8713    1.4218 H   0  0  0  0  0  0
    1.8134    0.8080    0.3187 H   0  0  0  0  0  0
    1.8035   -0.8564    0.8191 H   0  0  0  0  0  0
    1.5220   -0.0254   -2.1245 H   0  0  0  0  0  0
    3.0244   -0.4390   -1.3354 H   0  0  0  0  0  0
    2.0807   -2.2253   -2.3455 H   0  0  0  0  0  0
  1  6  2  0  0  0
  1  2  1  0  0  0
  1 18  1  0  0  0
  2  3  2  0  0  0
  2 19  1  0  0  0
  3  4  1  0  0  0
  3 17  1  0  0  0
  4  5  2  0  0  0
  4 20  1  0  0  0
  5  6  1  0  0  0
  5 21  1  0  0  0
  6  7  1  0  0  0
  7  8  1  0  0  0
  7 22  1  0  0  0
  7 23  1  0  0  0
  8 13  1  0  0  0
  8  9  1  0  0  0
  9 10  1  0  0  0
  9 24  1  0  0  0
  9 25  1  0  0  0
 10 11  1  0  0  0
 10 26  1  0  0  0
 10 27  1  0  0  0
 11 12  1  0  0  0
 11 14  1  0  0  0
 12 13  1  0  0  0
 12 28  1  0  0  0
 12 29  1  0  0  0
 13 30  1  0  0  0
 13 31  1  0  0  0
 14 15  1  0  0  0
 14 32  1  0  0  0
 14 33  1  0  0  0
 15 16  1  0  0  0
 15 34  1  0  0  0
 15 35  1  0  0  0
 16 36  1  0  0  0
M  END
> <s_m_entry_id>
66

> <s_m_entry_name>
biosynth_p1.0.sdf.59

> <s_m_Source_Path>
/Users/Sebastito/Downloads

> <s_m_Source_File>
biosynth_p1.0.sdf.gz

> <i_m_Source_File_Index>
59

> <chiral flag>
0

> <version>
0

> <i_m_ct_enhanced_stereo_status>
0

> <s_m_source_file>
ligprep_vs.maegz

> <i_m_source_file_index>
59

> <i_lp_mmshare_version>
37011

> <r_epik_Ionization_Penalty>
3.21038

> <r_epik_Ionization_Penalty_Charging>
0

> <r_epik_Ionization_Penalty_Neutral>
3.21038

> <r_epik_State_Penalty>
2.16918

> <r_epik_Charging_Adjusted_Penalty>
2.16918

> <i_epik_Tot_Q>
0

> <i_epik_Tot_abs_Q>
0

> <i_f3d_flags>
0

> <s_lp_Force_Field>
OPLS_2005

> <r_lp_Energy>
39.0643

> <b_lp_Chiralities_Consistent>
1

> <s_lp_Variant>
ZINC19606973-5

$$$$
ZINC01843029
                    3D
 Structure written by MMmdl.
 17 17  0  0  1  0            999 V2000
    0.0005    0.3877   -0.1865 C   0  0  2  0  0  0
   -0.6157    1.6861    0.2982 C   0  0  0  0  0  0
   -1.3156    1.4263    1.4014 N   0  0  0  0  0  0
   -1.2679    0.1344    1.7438 C   0  0  0  0  0  0
   -1.8200   -0.3772    2.7149 O   0  0  0  0  0  0
   -0.5121   -0.5039    0.8399 N   0  0  0  0  0  0
   -0.3134   -1.4939    0.8561 H   0  0  0  0  0  0
   -0.4696    2.7795   -0.2451 O   0  0  0  0  0  0
    1.4569    0.4712   -0.1791 N   0  0  0  0  0  0
    2.2691   -0.3466   -0.8615 C   0  0  0  0  0  0
    1.8876   -1.2834   -1.5600 O   0  0  0  0  0  0
    3.5556   -0.0349   -0.7010 N   0  0  0  0  0  0
   -0.3953    0.1238   -1.1688 H   0  0  0  0  0  0
    1.8683    1.2158    0.3645 H   0  0  0  0  0  0
    3.8219    0.7442   -0.1172 H   0  0  0  0  0  0
    4.2623   -0.5834   -1.1696 H   0  0  0  0  0  0
   -1.8230    2.1265    1.9224 H   0  0  0  0  0  0
  1  2  1  0  0  0
  1  9  1  0  0  0
  1 13  1  0  0  0
  1  6  1  0  0  0
  2  8  2  0  0  0
  2  3  1  0  0  0
  3  4  1  0  0  0
  3 17  1  0  0  0
  4  6  1  0  0  0
  4  5  2  0  0  0
  6  7  1  0  0  0
  9 10  1  0  0  0
  9 14  1  0  0  0
 10 11  2  0  0  0
 10 12  1  0  0  0
 12 15  1  0  0  0
 12 16  1  0  0  0
M  END
> <s_m_entry_id>
67

> <s_m_entry_name>
biosynth_p1.0.sdf.60

> <s_m_Source_Path>
/Users/Sebastito/Downloads

> <s_m_Source_File>
biosynth_p1.0.sdf.gz

> <i_m_Source_File_Index>
60

> <chiral flag>
1

> <version>
0

> <i_m_ct_enhanced_stereo_status>
0

> <s_m_source_file>
ligprep_vs.maegz

> <i_m_source_file_index>
60

> <i_lp_mmshare_version>
37011

> <r_lp_tautomer_probability>
1

> <r_epik_Ionization_Penalty>
0.0632556

> <r_epik_Ionization_Penalty_Charging>
0

> <r_epik_Ionization_Penalty_Neutral>
0.0632556

> <r_epik_State_Penalty>
0.270638

> <r_epik_Charging_Adjusted_Penalty>
0.270638

> <i_epik_Tot_Q>
0

> <i_epik_Tot_abs_Q>
0

> <s_epik_Chemistry_Notes>
This compound contains an acetal/aminal-like group ( X-CH(R)-Y where X, Y are N, S, or O) that may be acid/base labile, releasing an aldehyde.

> <i_f3d_flags>
0

> <s_lp_Force_Field>
OPLS_2005

> <r_lp_Energy>
7.05028

> <b_lp_Chiralities_Consistent>
1

> <s_lp_Variant>
ZINC01843029-1

$$$$
ZINC01843029
                    3D
 Structure written by MMmdl.
 16 16  0  0  1  0            999 V2000
   -0.0026    0.0395   -0.0149 C   0  0  2  0  0  0
   -0.5336    1.4718   -0.0193 C   0  0  0  0  0  0
   -1.2472    1.6448    1.1144 N   0  5  0  0  0  0
   -1.2569    0.5145    1.8475 C   0  0  0  0  0  0
   -1.8069    0.3161    2.9284 O   0  0  0  0  0  0
   -0.5558   -0.4366    1.2329 N   0  0  0  0  0  0
   -0.4220   -1.3742    1.5816 H   0  0  0  0  0  0
   -0.2977    2.2551   -0.9379 O   0  0  0  0  0  0
    1.4575    0.0268    0.0005 N   0  0  0  0  0  0
    2.2379   -0.5775   -0.9057 C   0  0  0  0  0  0
    1.8276   -1.2305   -1.8633 O   0  0  0  0  0  0
    3.5350   -0.3948   -0.6560 N   0  0  0  0  0  0
   -0.4282   -0.5207   -0.8493 H   0  0  0  0  0  0
    1.9016    0.5473    0.7425 H   0  0  0  0  0  0
    3.8256    0.1520    0.1411 H   0  0  0  0  0  0
    4.2225   -0.8020   -1.2730 H   0  0  0  0  0  0
  1  2  1  0  0  0
  1  9  1  0  0  0
  1 13  1  0  0  0
  1  6  1  0  0  0
  2  8  2  0  0  0
  2  3  1  0  0  0
  3  4  1  0  0  0
  4  6  1  0  0  0
  4  5  2  0  0  0
  6  7  1  0  0  0
  9 10  1  0  0  0
  9 14  1  0  0  0
 10 11  2  0  0  0
 10 12  1  0  0  0
 12 15  1  0  0  0
 12 16  1  0  0  0
M  CHG  1   3  -1
M  END
> <s_m_entry_id>
67

> <s_m_entry_name>
biosynth_p1.0.sdf.60

> <s_m_Source_Path>
/Users/Sebastito/Downloads

> <s_m_Source_File>
biosynth_p1.0.sdf.gz

> <i_m_Source_File_Index>
60

> <chiral flag>
1

> <version>
0

> <i_m_ct_enhanced_stereo_status>
0

> <s_m_source_file>
ligprep_vs.maegz

> <i_m_source_file_index>
60

> <i_lp_mmshare_version>
37011

> <r_epik_Ionization_Penalty>
1.36154

> <r_epik_Ionization_Penalty_Charging>
1.3615

> <r_epik_Ionization_Penalty_Neutral>
4.80648e-05

> <r_epik_State_Penalty>
1.65652

> <r_epik_Charging_Adjusted_Penalty>
3.01802

> <i_epik_Tot_Q>
-1

> <i_epik_Tot_abs_Q>
1

> <s_epik_Chemistry_Notes>
This compound contains an acetal/aminal-like group ( X-CH(R)-Y where X, Y are N, S, or O) that may be acid/base labile, releasing an aldehyde.

> <i_f3d_flags>
0

> <s_lp_Force_Field>
OPLS_2005

> <r_lp_Energy>
-12.909

> <b_lp_Chiralities_Consistent>
1

> <s_lp_Variant>
ZINC01843029-2

$$$$
ZINC01843029
                    3D
 Structure written by MMmdl.
 16 16  0  0  1  0            999 V2000
   -0.0026    0.0395   -0.0149 C   0  0  2  0  0  0
   -0.5336    1.4718   -0.0193 C   0  0  0  0  0  0
   -1.2472    1.6448    1.1144 N   0  5  0  0  0  0
   -1.2569    0.5145    1.8475 C   0  0  0  0  0  0
   -1.8069    0.3161    2.9284 O   0  0  0  0  0  0
   -0.5558   -0.4366    1.2329 N   0  0  0  0  0  0
   -0.2977    2.2551   -0.9379 O   0  0  0  0  0  0
    1.4575    0.0268    0.0005 N   0  0  0  0  0  0
    2.2379   -0.5775   -0.9057 C   0  0  0  0  0  0
    1.8276   -1.2305   -1.8633 O   0  0  0  0  0  0
    3.5350   -0.3948   -0.6560 N   0  0  0  0  0  0
   -0.4282   -0.5207   -0.8493 H   0  0  0  0  0  0
    1.9016    0.5473    0.7425 H   0  0  0  0  0  0
    3.8256    0.1520    0.1411 H   0  0  0  0  0  0
    4.2225   -0.8020   -1.2730 H   0  0  0  0  0  0
   -0.4220   -1.3742    1.5816 H   0  0  0  0  0  0
  1  2  1  0  0  0
  1  8  1  0  0  0
  1 12  1  0  0  0
  1  6  1  0  0  0
  2  7  2  0  0  0
  2  3  1  0  0  0
  3  4  1  0  0  0
  4  6  1  0  0  0
  4  5  2  0  0  0
  6 16  1  0  0  0
  8  9  1  0  0  0
  8 13  1  0  0  0
  9 10  2  0  0  0
  9 11  1  0  0  0
 11 14  1  0  0  0
 11 15  1  0  0  0
M  CHG  1   3  -1
M  END
> <s_m_entry_id>
67

> <s_m_entry_name>
biosynth_p1.0.sdf.60

> <s_m_Source_Path>
/Users/Sebastito/Downloads

> <s_m_Source_File>
biosynth_p1.0.sdf.gz

> <i_m_Source_File_Index>
60

> <chiral flag>
1

> <version>
0

> <i_m_ct_enhanced_stereo_status>
0

> <s_m_source_file>
ligprep_vs.maegz

> <i_m_source_file_index>
60

> <i_lp_mmshare_version>
37011

> <r_epik_Ionization_Penalty>
1.36154

> <r_epik_Ionization_Penalty_Charging>
1.3615

> <r_epik_Ionization_Penalty_Neutral>
4.80648e-05

> <r_epik_State_Penalty>
1.65652

> <r_epik_Charging_Adjusted_Penalty>
3.01802

> <i_epik_Tot_Q>
-1

> <i_epik_Tot_abs_Q>
1

> <s_epik_Chemistry_Notes>
This compound contains an acetal/aminal-like group ( X-CH(R)-Y where X, Y are N, S, or O) that may be acid/base labile, releasing an aldehyde.

> <i_f3d_flags>
0

> <s_lp_Force_Field>
OPLS_2005

> <r_lp_Energy>
-12.909

> <b_lp_Chiralities_Consistent>
1

> <s_lp_Variant>
ZINC01843029-3

$$$$
ZINC01843029
                    3D
 Structure written by MMmdl.
 16 16  0  0  1  0            999 V2000
   -0.0026    0.0395   -0.0149 C   0  0  2  0  0  0
   -0.5336    1.4718   -0.0193 C   0  0  0  0  0  0
   -1.2472    1.6448    1.1144 N   0  5  0  0  0  0
   -1.2569    0.5145    1.8475 C   0  0  0  0  0  0
   -1.8069    0.3161    2.9284 O   0  0  0  0  0  0
   -0.5558   -0.4366    1.2329 N   0  0  0  0  0  0
   -0.2977    2.2551   -0.9379 O   0  0  0  0  0  0
    1.4575    0.0268    0.0005 N   0  0  0  0  0  0
    2.2379   -0.5775   -0.9057 C   0  0  0  0  0  0
    1.8276   -1.2305   -1.8633 O   0  0  0  0  0  0
    3.5350   -0.3948   -0.6560 N   0  0  0  0  0  0
   -0.4282   -0.5207   -0.8493 H   0  0  0  0  0  0
    1.9016    0.5473    0.7425 H   0  0  0  0  0  0
    3.8256    0.1520    0.1411 H   0  0  0  0  0  0
    4.2225   -0.8020   -1.2730 H   0  0  0  0  0  0
   -0.4220   -1.3742    1.5816 H   0  0  0  0  0  0
  1  2  1  0  0  0
  1  8  1  0  0  0
  1 12  1  0  0  0
  1  6  1  0  0  0
  2  7  2  0  0  0
  2  3  1  0  0  0
  3  4  1  0  0  0
  4  6  1  0  0  0
  4  5  2  0  0  0
  6 16  1  0  0  0
  8  9  1  0  0  0
  8 13  1  0  0  0
  9 10  2  0  0  0
  9 11  1  0  0  0
 11 14  1  0  0  0
 11 15  1  0  0  0
M  CHG  1   3  -1
M  END
> <s_m_entry_id>
67

> <s_m_entry_name>
biosynth_p1.0.sdf.60

> <s_m_Source_Path>
/Users/Sebastito/Downloads

> <s_m_Source_File>
biosynth_p1.0.sdf.gz

> <i_m_Source_File_Index>
60

> <chiral flag>
1

> <version>
0

> <i_m_ct_enhanced_stereo_status>
0

> <s_m_source_file>
ligprep_vs.maegz

> <i_m_source_file_index>
60

> <i_lp_mmshare_version>
37011

> <r_epik_Ionization_Penalty>
1.36154

> <r_epik_Ionization_Penalty_Charging>
1.3615

> <r_epik_Ionization_Penalty_Neutral>
4.80648e-05

> <r_epik_State_Penalty>
1.65652

> <r_epik_Charging_Adjusted_Penalty>
3.01802

> <i_epik_Tot_Q>
-1

> <i_epik_Tot_abs_Q>
1

> <s_epik_Chemistry_Notes>
This compound contains an acetal/aminal-like group ( X-CH(R)-Y where X, Y are N, S, or O) that may be acid/base labile, releasing an aldehyde.

> <i_f3d_flags>
0

> <s_lp_Force_Field>
OPLS_2005

> <r_lp_Energy>
-12.909

> <b_lp_Chiralities_Consistent>
1

> <s_lp_Variant>
ZINC01843029-4

$$$$
ZINC01843029
                    3D
 Structure written by MMmdl.
 16 16  0  0  1  0            999 V2000
   -0.0026    0.0395   -0.0149 C   0  0  2  0  0  0
   -0.5336    1.4718   -0.0193 C   0  0  0  0  0  0
   -1.2472    1.6448    1.1144 N   0  5  0  0  0  0
   -1.2569    0.5145    1.8475 C   0  0  0  0  0  0
   -1.8069    0.3161    2.9284 O   0  0  0  0  0  0
   -0.5558   -0.4366    1.2329 N   0  0  0  0  0  0
   -0.2977    2.2551   -0.9379 O   0  0  0  0  0  0
    1.4575    0.0268    0.0005 N   0  0  0  0  0  0
    2.2379   -0.5775   -0.9057 C   0  0  0  0  0  0
    1.8276   -1.2305   -1.8633 O   0  0  0  0  0  0
    3.5350   -0.3948   -0.6560 N   0  0  0  0  0  0
   -0.4282   -0.5207   -0.8493 H   0  0  0  0  0  0
    1.9016    0.5473    0.7425 H   0  0  0  0  0  0
    3.8256    0.1520    0.1411 H   0  0  0  0  0  0
    4.2225   -0.8020   -1.2730 H   0  0  0  0  0  0
   -0.4220   -1.3742    1.5816 H   0  0  0  0  0  0
  1  2  1  0  0  0
  1  8  1  0  0  0
  1 12  1  0  0  0
  1  6  1  0  0  0
  2  7  2  0  0  0
  2  3  1  0  0  0
  3  4  1  0  0  0
  4  6  1  0  0  0
  4  5  2  0  0  0
  6 16  1  0  0  0
  8  9  1  0  0  0
  8 13  1  0  0  0
  9 10  2  0  0  0
  9 11  1  0  0  0
 11 14  1  0  0  0
 11 15  1  0  0  0
M  CHG  1   3  -1
M  END
> <s_m_entry_id>
67

> <s_m_entry_name>
biosynth_p1.0.sdf.60

> <s_m_Source_Path>
/Users/Sebastito/Downloads

> <s_m_Source_File>
biosynth_p1.0.sdf.gz

> <i_m_Source_File_Index>
60

> <chiral flag>
1

> <version>
0

> <i_m_ct_enhanced_stereo_status>
0

> <s_m_source_file>
ligprep_vs.maegz

> <i_m_source_file_index>
60

> <i_lp_mmshare_version>
37011

> <r_epik_Ionization_Penalty>
1.36154

> <r_epik_Ionization_Penalty_Charging>
1.3615

> <r_epik_Ionization_Penalty_Neutral>
4.80648e-05

> <r_epik_State_Penalty>
1.65652

> <r_epik_Charging_Adjusted_Penalty>
3.01802

> <i_epik_Tot_Q>
-1

> <i_epik_Tot_abs_Q>
1

> <s_epik_Chemistry_Notes>
This compound contains an acetal/aminal-like group ( X-CH(R)-Y where X, Y are N, S, or O) that may be acid/base labile, releasing an aldehyde.

> <i_f3d_flags>
0

> <s_lp_Force_Field>
OPLS_2005

> <r_lp_Energy>
-12.909

> <b_lp_Chiralities_Consistent>
1

> <s_lp_Variant>
ZINC01843029-5

$$$$
ZINC01843029
                    3D
 Structure written by MMmdl.
 16 16  0  0  1  0            999 V2000
   -0.0026    0.0395   -0.0149 C   0  0  2  0  0  0
   -0.5336    1.4718   -0.0193 C   0  0  0  0  0  0
   -1.2472    1.6448    1.1144 N   0  5  0  0  0  0
   -1.2569    0.5145    1.8475 C   0  0  0  0  0  0
   -1.8069    0.3161    2.9284 O   0  0  0  0  0  0
   -0.5558   -0.4366    1.2329 N   0  0  0  0  0  0
   -0.2977    2.2551   -0.9379 O   0  0  0  0  0  0
    1.4575    0.0268    0.0005 N   0  0  0  0  0  0
    2.2379   -0.5775   -0.9057 C   0  0  0  0  0  0
    1.8276   -1.2305   -1.8633 O   0  0  0  0  0  0
    3.5350   -0.3948   -0.6560 N   0  0  0  0  0  0
   -0.4282   -0.5207   -0.8493 H   0  0  0  0  0  0
    1.9016    0.5473    0.7425 H   0  0  0  0  0  0
    3.8256    0.1520    0.1411 H   0  0  0  0  0  0
    4.2225   -0.8020   -1.2730 H   0  0  0  0  0  0
   -0.4220   -1.3742    1.5816 H   0  0  0  0  0  0
  1  2  1  0  0  0
  1  8  1  0  0  0
  1 12  1  0  0  0
  1  6  1  0  0  0
  2  7  2  0  0  0
  2  3  1  0  0  0
  3  4  1  0  0  0
  4  6  1  0  0  0
  4  5  2  0  0  0
  6 16  1  0  0  0
  8  9  1  0  0  0
  8 13  1  0  0  0
  9 10  2  0  0  0
  9 11  1  0  0  0
 11 14  1  0  0  0
 11 15  1  0  0  0
M  CHG  1   3  -1
M  END
> <s_m_entry_id>
67

> <s_m_entry_name>
biosynth_p1.0.sdf.60

> <s_m_Source_Path>
/Users/Sebastito/Downloads

> <s_m_Source_File>
biosynth_p1.0.sdf.gz

> <i_m_Source_File_Index>
60

> <chiral flag>
1

> <version>
0

> <i_m_ct_enhanced_stereo_status>
0

> <s_m_source_file>
ligprep_vs.maegz

> <i_m_source_file_index>
60

> <i_lp_mmshare_version>
37011

> <r_epik_Ionization_Penalty>
1.36154

> <r_epik_Ionization_Penalty_Charging>
1.3615

> <r_epik_Ionization_Penalty_Neutral>
4.80648e-05

> <r_epik_State_Penalty>
1.65652

> <r_epik_Charging_Adjusted_Penalty>
3.01802

> <i_epik_Tot_Q>
-1

> <i_epik_Tot_abs_Q>
1

> <s_epik_Chemistry_Notes>
This compound contains an acetal/aminal-like group ( X-CH(R)-Y where X, Y are N, S, or O) that may be acid/base labile, releasing an aldehyde.

> <i_f3d_flags>
0

> <s_lp_Force_Field>
OPLS_2005

> <r_lp_Energy>
-12.909

> <b_lp_Chiralities_Consistent>
1

> <s_lp_Variant>
ZINC01843029-6

$$$$
ZINC01843029
                    3D
 Structure written by MMmdl.
 16 16  0  0  1  0            999 V2000
   -0.0026    0.0395   -0.0149 C   0  0  2  0  0  0
   -0.5336    1.4718   -0.0193 C   0  0  0  0  0  0
   -1.2472    1.6448    1.1144 N   0  5  0  0  0  0
   -1.2569    0.5145    1.8475 C   0  0  0  0  0  0
   -1.8069    0.3161    2.9284 O   0  0  0  0  0  0
   -0.5558   -0.4366    1.2329 N   0  0  0  0  0  0
   -0.2977    2.2551   -0.9379 O   0  0  0  0  0  0
    1.4575    0.0268    0.0005 N   0  0  0  0  0  0
    2.2379   -0.5775   -0.9057 C   0  0  0  0  0  0
    1.8276   -1.2305   -1.8633 O   0  0  0  0  0  0
    3.5350   -0.3948   -0.6560 N   0  0  0  0  0  0
   -0.4282   -0.5207   -0.8493 H   0  0  0  0  0  0
    1.9016    0.5473    0.7425 H   0  0  0  0  0  0
    3.8256    0.1520    0.1411 H   0  0  0  0  0  0
    4.2225   -0.8020   -1.2730 H   0  0  0  0  0  0
   -0.4220   -1.3742    1.5816 H   0  0  0  0  0  0
  1  2  1  0  0  0
  1  8  1  0  0  0
  1 12  1  0  0  0
  1  6  1  0  0  0
  2  7  2  0  0  0
  2  3  1  0  0  0
  3  4  1  0  0  0
  4  6  1  0  0  0
  4  5  2  0  0  0
  6 16  1  0  0  0
  8  9  1  0  0  0
  8 13  1  0  0  0
  9 10  2  0  0  0
  9 11  1  0  0  0
 11 14  1  0  0  0
 11 15  1  0  0  0
M  CHG  1   3  -1
M  END
> <s_m_entry_id>
67

> <s_m_entry_name>
biosynth_p1.0.sdf.60

> <s_m_Source_Path>
/Users/Sebastito/Downloads

> <s_m_Source_File>
biosynth_p1.0.sdf.gz

> <i_m_Source_File_Index>
60

> <chiral flag>
1

> <version>
0

> <i_m_ct_enhanced_stereo_status>
0

> <s_m_source_file>
ligprep_vs.maegz

> <i_m_source_file_index>
60

> <i_lp_mmshare_version>
37011

> <r_epik_Ionization_Penalty>
1.36154

> <r_epik_Ionization_Penalty_Charging>
1.3615

> <r_epik_Ionization_Penalty_Neutral>
4.80648e-05

> <r_epik_State_Penalty>
1.65652

> <r_epik_Charging_Adjusted_Penalty>
3.01802

> <i_epik_Tot_Q>
-1

> <i_epik_Tot_abs_Q>
1

> <s_epik_Chemistry_Notes>
This compound contains an acetal/aminal-like group ( X-CH(R)-Y where X, Y are N, S, or O) that may be acid/base labile, releasing an aldehyde.

> <i_f3d_flags>
0

> <s_lp_Force_Field>
OPLS_2005

> <r_lp_Energy>
-12.909

> <b_lp_Chiralities_Consistent>
1

> <s_lp_Variant>
ZINC01843029-7

$$$$
ZINC20357938
                    3D
 Structure written by MMmdl.
 17 17  0  0  1  0            999 V2000
   -0.5072   -0.8717    1.2676 C   0  0  0  0  0  0
   -0.0186   -0.0416    0.0575 C   0  0  2  0  0  0
   -0.5840   -0.5886   -1.2802 C   0  0  0  0  0  0
   -2.1022   -0.8060   -1.2389 C   0  0  0  0  0  0
   -2.5687   -0.7739   -2.4000 O   0  5  0  0  0  0
   -2.7181   -0.9868   -0.0142 C   0  0  0  0  0  0
   -2.0308   -0.9960    1.2829 C   0  0  0  0  0  0
   -2.6227   -1.1158    2.3541 O   0  0  0  0  0  0
    1.5207    0.0531    0.0306 C   0  0  0  0  0  0
    2.1332   -0.0688    1.1155 O   0  0  0  0  0  0
    2.0738    0.2764   -1.0695 O   0  5  0  0  0  0
   -0.1843   -0.4128    2.2028 H   0  0  0  0  0  0
   -0.0798   -1.8743    1.2364 H   0  0  0  0  0  0
   -0.3827    0.9794    0.1823 H   0  0  0  0  0  0
   -0.3224    0.0996   -2.0874 H   0  0  0  0  0  0
   -0.1004   -1.5370   -1.5208 H   0  0  0  0  0  0
   -3.7881   -1.1326    0.0136 H   0  0  0  0  0  0
  1  7  1  0  0  0
  1  2  1  0  0  0
  1 12  1  0  0  0
  1 13  1  0  0  0
  2  3  1  0  0  0
  2  9  1  0  0  0
  2 14  1  0  0  0
  3  4  1  0  0  0
  3 15  1  0  0  0
  3 16  1  0  0  0
  4  5  1  0  0  0
  4  6  2  0  0  0
  6  7  1  0  0  0
  6 17  1  0  0  0
  7  8  2  0  0  0
  9 10  2  0  0  0
  9 11  1  0  0  0
M  CHG  2   5  -1  11  -1
M  END
> <s_m_entry_id>
68

> <s_m_entry_name>
biosynth_p1.0.sdf.61

> <s_m_Source_Path>
/Users/Sebastito/Downloads

> <s_m_Source_File>
biosynth_p1.0.sdf.gz

> <i_m_Source_File_Index>
61

> <chiral flag>
0

> <version>
0

> <i_m_ct_enhanced_stereo_status>
0

> <s_m_source_file>
ligprep_vs.maegz

> <i_m_source_file_index>
61

> <i_lp_mmshare_version>
37011

> <r_epik_Ionization_Penalty>
0.143076

> <r_epik_Ionization_Penalty_Charging>
0.0332341

> <r_epik_Ionization_Penalty_Neutral>
0.109842

> <r_epik_State_Penalty>
0.0262305

> <r_epik_Charging_Adjusted_Penalty>
0.0594646

> <i_epik_Tot_Q>
-2

> <i_epik_Tot_abs_Q>
2

> <i_f3d_flags>
0

> <s_lp_Force_Field>
OPLS_2005

> <r_lp_Energy>
5.80928

> <b_lp_Chiralities_Consistent>
1

> <s_lp_Variant>
ZINC20357938-1

$$$$
ZINC20357938
                    3D
 Structure written by MMmdl.
 17 17  0  0  1  0            999 V2000
   -0.5072   -0.8721   -1.2674 C   0  0  0  0  0  0
   -0.0185   -0.0417   -0.0575 C   0  0  1  0  0  0
   -0.5842   -0.5884    1.2802 C   0  0  0  0  0  0
   -2.1024   -0.8057    1.2389 C   0  0  0  0  0  0
   -2.5690   -0.7728    2.4000 O   0  5  0  0  0  0
   -2.7182   -0.9867    0.0142 C   0  0  0  0  0  0
   -2.0307   -0.9964   -1.2829 C   0  0  0  0  0  0
   -2.6225   -1.1164   -2.3541 O   0  0  0  0  0  0
    1.5207    0.0530   -0.0308 C   0  0  0  0  0  0
    2.1327   -0.0644   -1.1165 O   0  0  0  0  0  0
    2.0743    0.2716    1.0701 O   0  5  0  0  0  0
   -0.0798   -1.8747   -1.2358 H   0  0  0  0  0  0
   -0.1840   -0.4135   -2.2025 H   0  0  0  0  0  0
   -0.3825    0.9792   -0.1828 H   0  0  0  0  0  0
   -0.1005   -1.5365    1.5214 H   0  0  0  0  0  0
   -0.3227    0.1003    2.0870 H   0  0  0  0  0  0
   -3.7882   -1.1323   -0.0138 H   0  0  0  0  0  0
  1  7  1  0  0  0
  1  2  1  0  0  0
  1 12  1  0  0  0
  1 13  1  0  0  0
  2  3  1  0  0  0
  2  9  1  0  0  0
  2 14  1  0  0  0
  3  4  1  0  0  0
  3 15  1  0  0  0
  3 16  1  0  0  0
  4  5  1  0  0  0
  4  6  2  0  0  0
  6  7  1  0  0  0
  6 17  1  0  0  0
  7  8  2  0  0  0
  9 10  2  0  0  0
  9 11  1  0  0  0
M  CHG  2   5  -1  11  -1
M  END
> <s_m_entry_id>
68

> <s_m_entry_name>
biosynth_p1.0.sdf.61

> <s_m_Source_Path>
/Users/Sebastito/Downloads

> <s_m_Source_File>
biosynth_p1.0.sdf.gz

> <i_m_Source_File_Index>
61

> <chiral flag>
0

> <version>
0

> <i_m_ct_enhanced_stereo_status>
0

> <s_m_source_file>
ligprep_vs.maegz

> <i_m_source_file_index>
61

> <i_lp_mmshare_version>
37011

> <r_epik_Ionization_Penalty>
0.143076

> <r_epik_Ionization_Penalty_Charging>
0.0332341

> <r_epik_Ionization_Penalty_Neutral>
0.109842

> <r_epik_State_Penalty>
0.0262305

> <r_epik_Charging_Adjusted_Penalty>
0.0594646

> <i_epik_Tot_Q>
-2

> <i_epik_Tot_abs_Q>
2

> <i_f3d_flags>
0

> <s_lp_Force_Field>
OPLS_2005

> <r_lp_Energy>
5.80926

> <b_lp_Chiralities_Consistent>
1

> <s_lp_Variant>
ZINC20357938-2

$$$$
ZINC20357938
                    3D
 Structure written by MMmdl.
 18 18  0  0  1  0            999 V2000
   -0.5256   -0.7635    1.3180 C   0  0  0  0  0  0
   -0.0260    0.0054    0.0747 C   0  0  2  0  0  0
   -0.5383   -0.6452   -1.2344 C   0  0  0  0  0  0
   -2.0540   -0.8767   -1.2230 C   0  0  0  0  0  0
   -2.4850   -0.9161   -2.3971 O   0  5  0  0  0  0
   -2.7007   -0.9903   -0.0062 C   0  0  0  0  0  0
   -2.0472   -0.9119    1.3062 C   0  0  0  0  0  0
   -2.6628   -0.9755    2.3684 O   0  0  0  0  0  0
    1.5030    0.1430    0.0690 C   0  0  0  0  0  0
    2.2434   -0.4097    0.8812 O   0  0  0  0  0  0
    1.9260    0.9637   -0.9364 O   0  0  0  0  0  0
   -0.2240   -0.2482    2.2306 H   0  0  0  0  0  0
   -0.0855   -1.7606    1.3509 H   0  0  0  0  0  0
   -0.4273    1.0191    0.1279 H   0  0  0  0  0  0
   -0.2547   -0.0195   -2.0837 H   0  0  0  0  0  0
   -0.0381   -1.6032   -1.3860 H   0  0  0  0  0  0
   -3.7697   -1.1459    0.0030 H   0  0  0  0  0  0
    1.2119    1.2934   -1.4601 H   0  0  0  0  0  0
  1  7  1  0  0  0
  1  2  1  0  0  0
  1 12  1  0  0  0
  1 13  1  0  0  0
  2  3  1  0  0  0
  2  9  1  0  0  0
  2 14  1  0  0  0
  3  4  1  0  0  0
  3 15  1  0  0  0
  3 16  1  0  0  0
  4  5  1  0  0  0
  4  6  2  0  0  0
  6  7  1  0  0  0
  6 17  1  0  0  0
  7  8  2  0  0  0
  9 10  2  0  0  0
  9 11  1  0  0  0
 11 18  1  0  0  0
M  CHG  1   5  -1
M  END
> <s_m_entry_id>
68

> <s_m_entry_name>
biosynth_p1.0.sdf.61

> <s_m_Source_Path>
/Users/Sebastito/Downloads

> <s_m_Source_File>
biosynth_p1.0.sdf.gz

> <i_m_Source_File_Index>
61

> <chiral flag>
0

> <version>
0

> <i_m_ct_enhanced_stereo_status>
0

> <s_m_source_file>
ligprep_vs.maegz

> <i_m_source_file_index>
61

> <i_lp_mmshare_version>
37011

> <r_epik_Ionization_Penalty>
1.91488

> <r_epik_Ionization_Penalty_Charging>
0.0020985

> <r_epik_Ionization_Penalty_Neutral>
1.91278

> <r_epik_State_Penalty>
2.04167

> <r_epik_Charging_Adjusted_Penalty>
2.04377

> <i_epik_Tot_Q>
-1

> <i_epik_Tot_abs_Q>
1

> <i_f3d_flags>
0

> <s_lp_Force_Field>
OPLS_2005

> <r_lp_Energy>
3.711

> <b_lp_Chiralities_Consistent>
1

> <s_lp_Variant>
ZINC20357938-3

$$$$
ZINC20357938
                    3D
 Structure written by MMmdl.
 18 18  0  0  1  0            999 V2000
   -0.5256   -0.7635   -1.3180 C   0  0  0  0  0  0
   -0.0260    0.0054   -0.0747 C   0  0  1  0  0  0
   -0.5383   -0.6452    1.2344 C   0  0  0  0  0  0
   -2.0540   -0.8767    1.2231 C   0  0  0  0  0  0
   -2.4850   -0.9161    2.3971 O   0  5  0  0  0  0
   -2.7007   -0.9903    0.0063 C   0  0  0  0  0  0
   -2.0472   -0.9119   -1.3062 C   0  0  0  0  0  0
   -2.6628   -0.9755   -2.3684 O   0  0  0  0  0  0
    1.5030    0.1430   -0.0690 C   0  0  0  0  0  0
    2.2434   -0.4097   -0.8812 O   0  0  0  0  0  0
    1.9260    0.9637    0.9364 O   0  0  0  0  0  0
   -0.0856   -1.7606   -1.3509 H   0  0  0  0  0  0
   -0.2240   -0.2482   -2.2306 H   0  0  0  0  0  0
   -0.4273    1.0191   -0.1279 H   0  0  0  0  0  0
   -0.0381   -1.6032    1.3860 H   0  0  0  0  0  0
   -0.2547   -0.0195    2.0837 H   0  0  0  0  0  0
   -3.7697   -1.1459   -0.0030 H   0  0  0  0  0  0
    1.2119    1.2934    1.4601 H   0  0  0  0  0  0
  1  7  1  0  0  0
  1  2  1  0  0  0
  1 12  1  0  0  0
  1 13  1  0  0  0
  2  3  1  0  0  0
  2  9  1  0  0  0
  2 14  1  0  0  0
  3  4  1  0  0  0
  3 15  1  0  0  0
  3 16  1  0  0  0
  4  5  1  0  0  0
  4  6  2  0  0  0
  6  7  1  0  0  0
  6 17  1  0  0  0
  7  8  2  0  0  0
  9 10  2  0  0  0
  9 11  1  0  0  0
 11 18  1  0  0  0
M  CHG  1   5  -1
M  END
> <s_m_entry_id>
68

> <s_m_entry_name>
biosynth_p1.0.sdf.61

> <s_m_Source_Path>
/Users/Sebastito/Downloads

> <s_m_Source_File>
biosynth_p1.0.sdf.gz

> <i_m_Source_File_Index>
61

> <chiral flag>
0

> <version>
0

> <i_m_ct_enhanced_stereo_status>
0

> <s_m_source_file>
ligprep_vs.maegz

> <i_m_source_file_index>
61

> <i_lp_mmshare_version>
37011

> <r_epik_Ionization_Penalty>
1.91488

> <r_epik_Ionization_Penalty_Charging>
0.0020985

> <r_epik_Ionization_Penalty_Neutral>
1.91278

> <r_epik_State_Penalty>
2.04167

> <r_epik_Charging_Adjusted_Penalty>
2.04377

> <i_epik_Tot_Q>
-1

> <i_epik_Tot_abs_Q>
1

> <i_f3d_flags>
0

> <s_lp_Force_Field>
OPLS_2005

> <r_lp_Energy>
3.711

> <b_lp_Chiralities_Consistent>
1

> <s_lp_Variant>
ZINC20357938-4

$$$$
ZINC20357938
                    3D
 Structure written by MMmdl.
 18 18  0  0  1  0            999 V2000
   -0.5239   -0.8650    1.2505 C   0  0  0  0  0  0
   -0.0170   -0.0521    0.0350 C   0  0  2  0  0  0
   -0.5868   -0.6073   -1.2921 C   0  0  0  0  0  0
   -2.0797   -0.8686   -1.1777 C   0  0  0  0  0  0
   -2.6649   -0.8875   -2.3821 O   0  0  0  0  0  0
   -2.7592   -1.0286   -0.0276 C   0  0  0  0  0  0
   -2.0534   -0.9780    1.2642 C   0  0  0  0  0  0
   -2.6429   -1.0426    2.3411 O   0  0  0  0  0  0
    1.5216    0.0228    0.0024 C   0  0  0  0  0  0
    2.1381   -0.1328    1.0800 O   0  0  0  0  0  0
    2.0661    0.2620   -1.0985 O   0  5  0  0  0  0
   -0.1985   -0.4004    2.1820 H   0  0  0  0  0  0
   -0.1050   -1.8716    1.2322 H   0  0  0  0  0  0
   -0.3689    0.9742    0.1500 H   0  0  0  0  0  0
   -0.3984    0.0932   -2.1078 H   0  0  0  0  0  0
   -0.0976   -1.5466   -1.5552 H   0  0  0  0  0  0
   -3.8268   -1.1935   -0.0268 H   0  0  0  0  0  0
   -1.9919   -0.7242   -3.0253 H   0  0  0  0  0  0
  1  7  1  0  0  0
  1  2  1  0  0  0
  1 12  1  0  0  0
  1 13  1  0  0  0
  2  3  1  0  0  0
  2  9  1  0  0  0
  2 14  1  0  0  0
  3  4  1  0  0  0
  3 15  1  0  0  0
  3 16  1  0  0  0
  4  5  1  0  0  0
  4  6  2  0  0  0
  5 18  1  0  0  0
  6  7  1  0  0  0
  6 17  1  0  0  0
  7  8  2  0  0  0
  9 10  2  0  0  0
  9 11  1  0  0  0
M  CHG  1  11  -1
M  END
> <s_m_entry_id>
68

> <s_m_entry_name>
biosynth_p1.0.sdf.61

> <s_m_Source_Path>
/Users/Sebastito/Downloads

> <s_m_Source_File>
biosynth_p1.0.sdf.gz

> <i_m_Source_File_Index>
61

> <chiral flag>
0

> <version>
0

> <i_m_ct_enhanced_stereo_status>
0

> <s_m_source_file>
ligprep_vs.maegz

> <i_m_source_file_index>
61

> <i_lp_mmshare_version>
37011

> <r_epik_Ionization_Penalty>
2.46808

> <r_epik_Ionization_Penalty_Charging>
0.000681524

> <r_epik_Ionization_Penalty_Neutral>
2.4674

> <r_epik_State_Penalty>
2.64924

> <r_epik_Charging_Adjusted_Penalty>
2.64993

> <i_epik_Tot_Q>
-1

> <i_epik_Tot_abs_Q>
1

> <i_f3d_flags>
0

> <s_lp_Force_Field>
OPLS_2005

> <r_lp_Energy>
1.89523

> <b_lp_Chiralities_Consistent>
1

> <s_lp_Variant>
ZINC20357938-5

$$$$
ZINC20357938
                    3D
 Structure written by MMmdl.
 18 18  0  0  1  0            999 V2000
   -0.5239   -0.8655   -1.2503 C   0  0  0  0  0  0
   -0.0169   -0.0522   -0.0352 C   0  0  1  0  0  0
   -0.5869   -0.6068    1.2921 C   0  0  0  0  0  0
   -2.0797   -0.8681    1.1777 C   0  0  0  0  0  0
   -2.6650   -0.8871    2.3821 O   0  0  0  0  0  0
   -2.7592   -1.0285    0.0276 C   0  0  0  0  0  0
   -2.0534   -0.9785   -1.2641 C   0  0  0  0  0  0
   -2.6428   -1.0437   -2.3411 O   0  0  0  0  0  0
    1.5217    0.0228   -0.0026 C   0  0  0  0  0  0
    2.1379   -0.1291   -1.0810 O   0  0  0  0  0  0
    2.0666    0.2586    1.0987 O   0  5  0  0  0  0
   -0.1047   -1.8721   -1.2316 H   0  0  0  0  0  0
   -0.1987   -0.4010   -2.1820 H   0  0  0  0  0  0
   -0.3688    0.9742   -0.1505 H   0  0  0  0  0  0
   -0.0978   -1.5459    1.5562 H   0  0  0  0  0  0
   -0.3985    0.0943    2.1074 H   0  0  0  0  0  0
   -3.8269   -1.1934    0.0269 H   0  0  0  0  0  0
   -1.9920   -0.7247    3.0254 H   0  0  0  0  0  0
  1  7  1  0  0  0
  1  2  1  0  0  0
  1 12  1  0  0  0
  1 13  1  0  0  0
  2  3  1  0  0  0
  2  9  1  0  0  0
  2 14  1  0  0  0
  3  4  1  0  0  0
  3 15  1  0  0  0
  3 16  1  0  0  0
  4  5  1  0  0  0
  4  6  2  0  0  0
  5 18  1  0  0  0
  6  7  1  0  0  0
  6 17  1  0  0  0
  7  8  2  0  0  0
  9 10  2  0  0  0
  9 11  1  0  0  0
M  CHG  1  11  -1
M  END
> <s_m_entry_id>
68

> <s_m_entry_name>
biosynth_p1.0.sdf.61

> <s_m_Source_Path>
/Users/Sebastito/Downloads

> <s_m_Source_File>
biosynth_p1.0.sdf.gz

> <i_m_Source_File_Index>
61

> <chiral flag>
0

> <version>
0

> <i_m_ct_enhanced_stereo_status>
0

> <s_m_source_file>
ligprep_vs.maegz

> <i_m_source_file_index>
61

> <i_lp_mmshare_version>
37011

> <r_epik_Ionization_Penalty>
2.46808

> <r_epik_Ionization_Penalty_Charging>
0.000681524

> <r_epik_Ionization_Penalty_Neutral>
2.4674

> <r_epik_State_Penalty>
2.64924

> <r_epik_Charging_Adjusted_Penalty>
2.64993

> <i_epik_Tot_Q>
-1

> <i_epik_Tot_abs_Q>
1

> <i_f3d_flags>
0

> <s_lp_Force_Field>
OPLS_2005

> <r_lp_Energy>
1.89516

> <b_lp_Chiralities_Consistent>
1

> <s_lp_Variant>
ZINC20357938-6

$$$$
ZINC34676245
                    3D
 Structure written by MMmdl.
 14 14  0  0  1  0            999 V2000
   -0.5577    1.4168    0.0456 C   0  0  0  0  0  0
    0.0134   -0.0065   -0.0094 C   0  0  2  0  0  0
   -0.4034   -0.5640   -0.8490 H   0  0  0  0  0  0
   -0.5462   -0.5703    1.2749 C   0  0  0  0  0  0
   -0.0849   -1.5389    1.8753 O   0  0  0  0  0  0
   -1.5902    0.1691    1.6347 N   0  0  0  0  0  0
   -1.7593    1.2804    0.8006 O   0  0  0  0  0  0
    1.4859   -0.0360   -0.0578 N   0  3  0  0  0  0
   -0.7547    1.8314   -0.9436 H   0  0  0  0  0  0
    0.1145    2.0961    0.5735 H   0  0  0  0  0  0
    1.8002   -0.9955   -0.0247 H   0  0  0  0  0  0
    1.8579    0.4647    0.7365 H   0  0  0  0  0  0
   -2.1399    0.2137    2.4812 H   0  0  0  0  0  0
    1.8069    0.3968   -0.9119 H   0  0  0  0  0  0
  1  7  1  0  0  0
  1  2  1  0  0  0
  1  9  1  0  0  0
  1 10  1  0  0  0
  2  3  1  0  0  0
  2  4  1  0  0  0
  2  8  1  0  0  0
  4  5  2  0  0  0
  4  6  1  0  0  0
  6  7  1  0  0  0
  6 13  1  0  0  0
  8 11  1  0  0  0
  8 12  1  0  0  0
  8 14  1  0  0  0
M  CHG  1   8   1
M  END
> <s_m_entry_id>
69

> <s_m_entry_name>
biosynth_p1.0.sdf.62

> <s_m_Source_Path>
/Users/Sebastito/Downloads

> <s_m_Source_File>
biosynth_p1.0.sdf.gz

> <i_m_Source_File_Index>
62

> <chiral flag>
1

> <version>
0

> <i_m_ct_enhanced_stereo_status>
0

> <s_m_source_file>
ligprep_vs.maegz

> <i_m_source_file_index>
62

> <i_lp_mmshare_version>
37011

> <r_epik_Ionization_Penalty>
0.256372

> <r_epik_Ionization_Penalty_Charging>
0.255481

> <r_epik_Ionization_Penalty_Neutral>
0.000890671

> <r_epik_State_Penalty>
0.246996

> <r_epik_Charging_Adjusted_Penalty>
0.502477

> <i_epik_Tot_Q>
1

> <i_epik_Tot_abs_Q>
1

> <s_epik_Chemistry_Notes>
This compound has a N-S or N-O group and may undergo hydrolysis at high or low pH.

> <i_f3d_flags>
0

> <s_lp_Force_Field>
OPLS_2005

> <r_lp_Energy>
10.818

> <b_lp_Chiralities_Consistent>
1

> <s_lp_Variant>
ZINC34676245-1

$$$$
ZINC34676245
                    3D
 Structure written by MMmdl.
 13 13  0  0  1  0            999 V2000
   -0.5527    1.4082    0.0397 C   0  0  0  0  0  0
    0.0147   -0.0178   -0.0111 C   0  0  2  0  0  0
   -0.4023   -0.5742   -0.8514 H   0  0  0  0  0  0
   -0.5513   -0.5777    1.2744 C   0  0  0  0  0  0
   -0.1068   -1.5567    1.8716 O   0  0  0  0  0  0
   -1.5766    0.1816    1.6463 N   0  0  0  0  0  0
   -1.7495    1.2846    0.8032 O   0  0  0  0  0  0
    1.4746   -0.0377   -0.0710 N   0  0  0  0  0  0
   -0.7580    1.8141   -0.9511 H   0  0  0  0  0  0
    0.1264    2.0914    0.5536 H   0  0  0  0  0  0
    1.8300   -0.9830   -0.0928 H   0  0  0  0  0  0
    1.8194    0.4164   -0.9044 H   0  0  0  0  0  0
   -2.1211    0.2337    2.4951 H   0  0  0  0  0  0
  1  7  1  0  0  0
  1  2  1  0  0  0
  1  9  1  0  0  0
  1 10  1  0  0  0
  2  3  1  0  0  0
  2  4  1  0  0  0
  2  8  1  0  0  0
  4  5  2  0  0  0
  4  6  1  0  0  0
  6  7  1  0  0  0
  6 13  1  0  0  0
  8 11  1  0  0  0
  8 12  1  0  0  0
M  END
> <s_m_entry_id>
69

> <s_m_entry_name>
biosynth_p1.0.sdf.62

> <s_m_Source_Path>
/Users/Sebastito/Downloads

> <s_m_Source_File>
biosynth_p1.0.sdf.gz

> <i_m_Source_File_Index>
62

> <chiral flag>
1

> <version>
0

> <i_m_ct_enhanced_stereo_status>
0

> <s_m_source_file>
ligprep_vs.maegz

> <i_m_source_file_index>
62

> <i_lp_mmshare_version>
37011

> <r_epik_Ionization_Penalty>
0.621581

> <r_epik_Ionization_Penalty_Charging>
0

> <r_epik_Ionization_Penalty_Neutral>
0.621581

> <r_epik_State_Penalty>
0.637613

> <r_epik_Charging_Adjusted_Penalty>
0.637613

> <i_epik_Tot_Q>
0

> <i_epik_Tot_abs_Q>
0

> <s_epik_Chemistry_Notes>
This compound has a N-S or N-O group and may undergo hydrolysis at high or low pH.

> <i_f3d_flags>
0

> <s_lp_Force_Field>
OPLS_2005

> <r_lp_Energy>
12.7352

> <b_lp_Chiralities_Consistent>
1

> <s_lp_Variant>
ZINC34676245-2

$$$$
ZINC53255716
                    3D
 Structure written by MMmdl.
 69 71  0  0  1  0            999 V2000
   -2.1815   -0.5015    1.4048 C   0  0  0  0  0  0
   -2.7398   -1.5407    0.4293 C   0  0  2  0  0  0
   -2.3167   -2.5139    0.6850 H   0  0  0  0  0  0
   -2.3682   -1.1853   -1.0254 C   0  0  1  0  0  0
   -2.9521   -0.3192   -1.3420 H   0  0  0  0  0  0
   -0.8524   -0.8938   -1.2499 C   0  0  2  0  0  0
   -0.2912   -1.8272   -1.3276 H   0  0  0  0  0  0
   -0.2062   -0.0216   -0.1274 C   0  0  1  0  0  0
   -0.4749    1.0248   -0.2833 H   0  0  0  0  0  0
   -0.6552   -0.4266    1.2944 C   0  0  1  0  0  0
   -0.2433   -1.4096    1.5290 H   0  0  0  0  0  0
   -0.1304    0.5144    2.3046 N   0  3  0  0  0  0
    1.2173   -0.1709   -0.0810 O   0  0  0  0  0  0
    1.9647    0.3003   -1.1641 C   0  0  2  0  0  0
    1.6647   -0.2302   -2.0602 H   0  0  0  0  0  0
    3.4584    0.0227   -0.9086 C   0  0  1  0  0  0
    4.0106    0.3702   -1.7837 H   0  0  0  0  0  0
    3.9026    0.8123    0.3352 C   0  0  2  0  0  0
    3.4011    0.4297    1.2260 H   0  0  0  0  0  0
    3.5972    2.3095    0.1369 C   0  0  1  0  0  0
    4.2792    2.7336   -0.6023 H   0  0  0  0  0  0
    2.1340    2.5378   -0.3165 C   0  0  2  0  0  0
    1.4593    2.3325    0.5162 H   0  0  0  0  0  0
    1.8086    1.6692   -1.4033 O   0  0  0  0  0  0
    1.9080    3.9790   -0.8117 C   0  0  0  0  0  0
    0.4883    4.2508   -1.0984 N   0  3  0  0  0  0
    3.7757    2.9650    1.3770 O   0  0  0  0  0  0
    5.3009    0.6562    0.4893 O   0  0  0  0  0  0
    3.7102   -1.4252   -0.7731 N   0  3  0  0  0  0
   -0.7378   -0.0929   -2.4285 O   0  0  0  0  0  0
   -0.7035   -0.7690   -3.6490 C   0  0  1  0  0  0
   -1.5324   -1.4637   -3.7709 H   0  0  0  0  0  0
   -0.7193    0.2696   -4.7673 C   0  0  1  0  0  0
   -0.1749    1.1545   -4.4336 H   0  0  0  0  0  0
    0.0641   -0.4364   -5.8644 C   0  0  1  0  0  0
    0.5061    0.2704   -6.5679 H   0  0  0  0  0  0
    1.1150   -1.2195   -5.0701 C   0  0  2  0  0  0
    1.3739   -2.1529   -5.5731 H   0  0  0  0  0  0
    0.4854   -1.4865   -3.8132 O   0  0  0  0  0  0
    2.3930   -0.3929   -4.8347 C   0  0  0  0  0  0
    3.4125   -1.2047   -4.2917 O   0  0  0  0  0  0
   -0.7254   -1.3524   -6.6038 O   0  0  0  0  0  0
   -2.0189    0.6312   -5.1896 O   0  0  0  0  0  0
   -2.7459   -2.3103   -1.7968 O   0  0  0  0  0  0
   -4.2050   -1.6440    0.5858 N   0  3  0  0  0  0
   -2.4642   -0.7686    2.4246 H   0  0  0  0  0  0
   -2.6214    0.4773    1.2046 H   0  0  0  0  0  0
   -0.4996    1.4400    2.1399 H   0  0  0  0  0  0
    2.2366    4.6965   -0.0593 H   0  0  0  0  0  0
    2.4951    4.1708   -1.7107 H   0  0  0  0  0  0
    0.3911    5.2024   -1.4251 H   0  0  0  0  0  0
    4.6747    2.8552    1.6506 H   0  0  0  0  0  0
    5.7409    1.0579   -0.2453 H   0  0  0  0  0  0
    3.1843   -1.7927    0.0065 H   0  0  0  0  0  0
    2.7624   -0.0109   -5.7870 H   0  0  0  0  0  0
    2.2122    0.4715   -4.1965 H   0  0  0  0  0  0
    4.2396   -0.7605   -4.4036 H   0  0  0  0  0  0
   -1.0524   -2.0173   -6.0173 H   0  0  0  0  0  0
   -2.4197   -0.1180   -5.6048 H   0  0  0  0  0  0
   -2.2104   -3.0493   -1.5486 H   0  0  0  0  0  0
   -4.6381   -0.7565    0.3739 H   0  0  0  0  0  0
   -0.0600    4.1311   -0.2591 H   0  0  0  0  0  0
    0.8783    0.5406    2.2558 H   0  0  0  0  0  0
   -4.4317   -1.9108    1.5335 H   0  0  0  0  0  0
    4.6959   -1.5783   -0.6113 H   0  0  0  0  0  0
    0.1590    3.6194   -1.8148 H   0  0  0  0  0  0
   -0.4070    0.2074    3.2270 H   0  0  0  0  0  0
   -4.5594   -2.3444   -0.0510 H   0  0  0  0  0  0
    3.4347   -1.8994   -1.6220 H   0  0  0  0  0  0
  1 10  1  0  0  0
  1  2  1  0  0  0
  1 46  1  0  0  0
  1 47  1  0  0  0
  2  3  1  0  0  0
  2  4  1  0  0  0
  2 45  1  0  0  0
  4  5  1  0  0  0
  4  6  1  0  0  0
  4 44  1  0  0  0
  6  7  1  0  0  0
  6  8  1  0  0  0
  6 30  1  0  0  0
  8  9  1  0  0  0
  8 10  1  0  0  0
  8 13  1  0  0  0
 10 11  1  0  0  0
 10 12  1  0  0  0
 12 48  1  0  0  0
 12 63  1  0  0  0
 12 67  1  0  0  0
 13 14  1  0  0  0
 14 15  1  0  0  0
 14 24  1  0  0  0
 14 16  1  0  0  0
 16 17  1  0  0  0
 16 18  1  0  0  0
 16 29  1  0  0  0
 18 19  1  0  0  0
 18 20  1  0  0  0
 18 28  1  0  0  0
 20 21  1  0  0  0
 20 22  1  0  0  0
 20 27  1  0  0  0
 22 23  1  0  0  0
 22 24  1  0  0  0
 22 25  1  0  0  0
 25 26  1  0  0  0
 25 49  1  0  0  0
 25 50  1  0  0  0
 26 51  1  0  0  0
 26 62  1  0  0  0
 26 66  1  0  0  0
 27 52  1  0  0  0
 28 53  1  0  0  0
 29 54  1  0  0  0
 29 65  1  0  0  0
 29 69  1  0  0  0
 30 31  1  0  0  0
 31 32  1  0  0  0
 31 39  1  0  0  0
 31 33  1  0  0  0
 33 34  1  0  0  0
 33 35  1  0  0  0
 33 43  1  0  0  0
 35 36  1  0  0  0
 35 37  1  0  0  0
 35 42  1  0  0  0
 37 38  1  0  0  0
 37 39  1  0  0  0
 37 40  1  0  0  0
 40 41  1  0  0  0
 40 55  1  0  0  0
 40 56  1  0  0  0
 41 57  1  0  0  0
 42 58  1  0  0  0
 43 59  1  0  0  0
 44 60  1  0  0  0
 45 61  1  0  0  0
 45 64  1  0  0  0
 45 68  1  0  0  0
M  CHG  4  12   1  26   1  29   1  45   1
M  END
> <s_m_entry_id>
70

> <s_m_entry_name>
biosynth_p1.0.sdf.63

> <s_m_Source_Path>
/Users/Sebastito/Downloads

> <s_m_Source_File>
biosynth_p1.0.sdf.gz

> <i_m_Source_File_Index>
63

> <chiral flag>
1

> <version>
0

> <i_m_ct_enhanced_stereo_status>
0

> <s_m_source_file>
ligprep_vs.maegz

> <i_m_source_file_index>
63

> <i_lp_mmshare_version>
37011

> <r_epik_Ionization_Penalty>
0.465361

> <r_epik_Ionization_Penalty_Charging>
0.465297

> <r_epik_Ionization_Penalty_Neutral>
6.32516e-05

> <r_epik_State_Penalty>
0.421128

> <r_epik_Charging_Adjusted_Penalty>
0.886425

> <i_epik_Tot_Q>
4

> <i_epik_Tot_abs_Q>
4

> <s_epik_Chemistry_Notes>
This compound contains an acetal/aminal-like group ( X-CH(R)-Y where X, Y are N, S, or O) that may be acid/base labile, releasing an aldehyde.

> <i_f3d_flags>
0

> <s_lp_Force_Field>
OPLS_2005

> <r_lp_Energy>
96.1715

> <b_lp_Chiralities_Consistent>
1

> <s_lp_Variant>
ZINC53255716-1

$$$$
ZINC53255716
                    3D
 Structure written by MMmdl.
 68 70  0  0  1  0            999 V2000
   -2.2824   -0.1413    1.3539 C   0  0  0  0  0  0
   -2.8675   -1.1785    0.3898 C   0  0  2  0  0  0
   -2.4934   -2.1606    0.6859 H   0  0  0  0  0  0
   -2.4514   -0.8947   -1.0704 C   0  0  1  0  0  0
   -2.9782   -0.0161   -1.4462 H   0  0  0  0  0  0
   -0.9160   -0.6997   -1.2398 C   0  0  2  0  0  0
   -0.4091   -1.6640   -1.1653 H   0  0  0  0  0  0
   -0.3079    0.2570   -0.1799 C   0  0  1  0  0  0
   -0.6215    1.2750   -0.4223 H   0  0  0  0  0  0
   -0.7512   -0.0978    1.2599 C   0  0  1  0  0  0
   -0.3510   -1.0779    1.5237 H   0  0  0  0  0  0
   -0.2371    0.8691    2.2489 N   0  3  0  0  0  0
    1.1069    0.1062   -0.2980 O   0  0  0  0  0  0
    1.8909    1.2321   -0.0141 C   0  0  2  0  0  0
    1.3006    2.0341    0.4306 H   0  0  0  0  0  0
    2.5617    1.7381   -1.3072 C   0  0  1  0  0  0
    3.2021    2.5731   -1.0185 H   0  0  0  0  0  0
    3.4499    0.6159   -1.8698 C   0  0  2  0  0  0
    2.8375   -0.2168   -2.2099 H   0  0  0  0  0  0
    4.4522    0.1499   -0.7962 C   0  0  1  0  0  0
    5.2143    0.9159   -0.6419 H   0  0  0  0  0  0
    3.7525   -0.1522    0.5510 C   0  0  2  0  0  0
    3.1610   -1.0652    0.4576 H   0  0  0  0  0  0
    2.8929    0.9334    0.9128 O   0  0  0  0  0  0
    4.7740   -0.3281    1.6908 C   0  0  0  0  0  0
    4.1478   -0.8442    2.9200 N   0  3  0  0  0  0
    5.0679   -1.0404   -1.2516 O   0  0  0  0  0  0
    4.1940    1.1450   -2.9509 O   0  0  0  0  0  0
    1.5629    2.2339   -2.2693 N   0  0  0  0  0  0
   -0.5962   -0.0504   -2.4734 O   0  0  0  0  0  0
   -0.8997   -0.7106   -3.6642 C   0  0  1  0  0  0
   -1.9806   -0.7116   -3.8059 H   0  0  0  0  0  0
   -0.1945    0.0397   -4.8026 C   0  0  1  0  0  0
   -0.0136    1.0780   -4.5212 H   0  0  0  0  0  0
    1.1007   -0.7453   -4.9481 C   0  0  1  0  0  0
    1.8064   -0.4042   -4.1937 H   0  0  0  0  0  0
    0.6306   -2.1669   -4.6457 C   0  0  2  0  0  0
    0.1508   -2.5720   -5.5384 H   0  0  0  0  0  0
   -0.4079   -2.0225   -3.6832 O   0  0  0  0  0  0
    1.6888   -3.1772   -4.1683 C   0  0  0  0  0  0
    2.4535   -2.6826   -3.0887 O   0  0  0  0  0  0
    1.6917   -0.6016   -6.2247 O   0  0  0  0  0  0
   -0.9868    0.0432   -5.9768 O   0  0  0  0  0  0
   -2.8554   -2.0467   -1.7884 O   0  0  0  0  0  0
   -4.3377   -1.2143    0.5180 N   0  3  0  0  0  0
   -2.5813   -0.3830    2.3754 H   0  0  0  0  0  0
   -2.6965    0.8445    1.1341 H   0  0  0  0  0  0
   -0.5990    1.7900    2.0446 H   0  0  0  0  0  0
    5.5508   -1.0359    1.4002 H   0  0  0  0  0  0
    5.2728    0.6169    1.9091 H   0  0  0  0  0  0
    4.8552   -0.9522    3.6334 H   0  0  0  0  0  0
    4.3934   -1.6493   -1.5113 H   0  0  0  0  0  0
    3.5960    1.3733   -3.6463 H   0  0  0  0  0  0
    1.0497    3.0224   -1.8779 H   0  0  0  0  0  0
    1.2177   -4.1162   -3.8775 H   0  0  0  0  0  0
    2.3727   -3.4040   -4.9864 H   0  0  0  0  0  0
    3.1180   -3.3221   -2.8812 H   0  0  0  0  0  0
    1.0443   -0.8098   -6.8809 H   0  0  0  0  0  0
   -1.1553   -0.8517   -6.2297 H   0  0  0  0  0  0
   -2.5852   -1.9545   -2.6900 H   0  0  0  0  0  0
   -4.7272   -0.3175    0.2646 H   0  0  0  0  0  0
    3.7238   -1.7417    2.7336 H   0  0  0  0  0  0
    0.7719    0.8903    2.2067 H   0  0  0  0  0  0
   -4.5930   -1.4373    1.4693 H   0  0  0  0  0  0
    2.0230    2.5745   -3.1129 H   0  0  0  0  0  0
    3.4457   -0.1945    3.2421 H   0  0  0  0  0  0
   -0.5280    0.5945    3.1768 H   0  0  0  0  0  0
   -4.7057   -1.9232   -0.1013 H   0  0  0  0  0  0
  1 10  1  0  0  0
  1  2  1  0  0  0
  1 46  1  0  0  0
  1 47  1  0  0  0
  2  3  1  0  0  0
  2  4  1  0  0  0
  2 45  1  0  0  0
  4  5  1  0  0  0
  4  6  1  0  0  0
  4 44  1  0  0  0
  6  7  1  0  0  0
  6  8  1  0  0  0
  6 30  1  0  0  0
  8  9  1  0  0  0
  8 10  1  0  0  0
  8 13  1  0  0  0
 10 11  1  0  0  0
 10 12  1  0  0  0
 12 48  1  0  0  0
 12 63  1  0  0  0
 12 67  1  0  0  0
 13 14  1  0  0  0
 14 15  1  0  0  0
 14 24  1  0  0  0
 14 16  1  0  0  0
 16 17  1  0  0  0
 16 18  1  0  0  0
 16 29  1  0  0  0
 18 19  1  0  0  0
 18 20  1  0  0  0
 18 28  1  0  0  0
 20 21  1  0  0  0
 20 22  1  0  0  0
 20 27  1  0  0  0
 22 23  1  0  0  0
 22 24  1  0  0  0
 22 25  1  0  0  0
 25 26  1  0  0  0
 25 49  1  0  0  0
 25 50  1  0  0  0
 26 51  1  0  0  0
 26 62  1  0  0  0
 26 66  1  0  0  0
 27 52  1  0  0  0
 28 53  1  0  0  0
 29 54  1  0  0  0
 29 65  1  0  0  0
 30 31  1  0  0  0
 31 32  1  0  0  0
 31 39  1  0  0  0
 31 33  1  0  0  0
 33 34  1  0  0  0
 33 35  1  0  0  0
 33 43  1  0  0  0
 35 36  1  0  0  0
 35 37  1  0  0  0
 35 42  1  0  0  0
 37 38  1  0  0  0
 37 39  1  0  0  0
 37 40  1  0  0  0
 40 41  1  0  0  0
 40 55  1  0  0  0
 40 56  1  0  0  0
 41 57  1  0  0  0
 42 58  1  0  0  0
 43 59  1  0  0  0
 44 60  1  0  0  0
 45 61  1  0  0  0
 45 64  1  0  0  0
 45 68  1  0  0  0
M  CHG  3  12   1  26   1  45   1
M  END
> <s_m_entry_id>
70

> <s_m_entry_name>
biosynth_p1.0.sdf.63

> <s_m_Source_Path>
/Users/Sebastito/Downloads

> <s_m_Source_File>
biosynth_p1.0.sdf.gz

> <i_m_Source_File_Index>
63

> <chiral flag>
1

> <version>
0

> <i_m_ct_enhanced_stereo_status>
0

> <s_m_source_file>
ligprep_vs.maegz

> <i_m_source_file_index>
63

> <i_lp_mmshare_version>
37011

> <r_epik_Ionization_Penalty>
0.735249

> <r_epik_Ionization_Penalty_Charging>
0.160636

> <r_epik_Ionization_Penalty_Neutral>
0.574613

> <r_epik_State_Penalty>
0.719859

> <r_epik_Charging_Adjusted_Penalty>
0.880495

> <i_epik_Tot_Q>
3

> <i_epik_Tot_abs_Q>
3

> <s_epik_Chemistry_Notes>
This compound contains an acetal/aminal-like group ( X-CH(R)-Y where X, Y are N, S, or O) that may be acid/base labile, releasing an aldehyde.

> <i_f3d_flags>
0

> <s_lp_Force_Field>
OPLS_2005

> <r_lp_Energy>
94.3799

> <b_lp_Chiralities_Consistent>
1

> <s_lp_Variant>
ZINC53255716-2

$$$$
ZINC53255716
                    3D
 Structure written by MMmdl.
 68 70  0  0  1  0            999 V2000
   -2.4024    0.0737    1.0164 C   0  0  0  0  0  0
   -2.9147   -1.1154    0.1994 C   0  0  2  0  0  0
   -2.5650   -2.0261    0.6884 H   0  0  0  0  0  0
   -2.3491   -1.0789   -1.2361 C   0  0  1  0  0  0
   -2.8525   -0.2958   -1.8058 H   0  0  0  0  0  0
   -0.8086   -0.8664   -1.3124 C   0  0  2  0  0  0
   -0.2843   -1.7884   -1.0503 H   0  0  0  0  0  0
   -0.2898    0.2620   -0.3722 C   0  0  1  0  0  0
   -0.5585    1.2446   -0.7653 H   0  0  0  0  0  0
   -0.8731    0.1101    1.0505 C   0  0  1  0  0  0
   -0.5118   -0.8224    1.4869 H   0  0  0  0  0  0
   -0.4339    1.2019    1.9386 N   0  3  0  0  0  0
    1.1230    0.1470   -0.1938 O   0  0  0  0  0  0
    1.9435    0.7286   -1.1659 C   0  0  2  0  0  0
    1.5888    0.4898   -2.1638 H   0  0  0  0  0  0
    3.3747    0.1810   -0.9913 C   0  0  1  0  0  0
    3.9879    0.5987   -1.7912 H   0  0  0  0  0  0
    3.9195    0.6345    0.3745 C   0  0  2  0  0  0
    3.3565    0.1623    1.1817 H   0  0  0  0  0  0
    3.8448    2.1683    0.4851 C   0  0  1  0  0  0
    4.5819    2.6278   -0.1758 H   0  0  0  0  0  0
    2.4317    2.6914    0.1327 C   0  0  2  0  0  0
    1.7360    2.4123    0.9234 H   0  0  0  0  0  0
    1.9849    2.1251   -1.0996 O   0  0  0  0  0  0
    2.4174    4.2224   -0.0425 C   0  0  0  0  0  0
    1.0507    4.7515   -0.1961 N   0  3  0  0  0  0
    4.1196    2.5273    1.8248 O   0  0  0  0  0  0
    5.2769    0.2435    0.4676 O   0  0  0  0  0  0
    3.3932   -1.2891   -1.1262 N   0  3  0  0  0  0
   -0.5475   -0.4560   -2.6525 O   0  0  0  0  0  0
   -0.1066   -1.4627   -3.5127 C   0  0  1  0  0  0
   -0.5850   -2.4169   -3.2896 H   0  0  0  0  0  0
   -0.4123   -1.0260   -4.9535 C   0  0  1  0  0  0
   -1.0828   -0.1654   -4.9612 H   0  0  0  0  0  0
    0.9677   -0.6652   -5.4830 C   0  0  1  0  0  0
    1.2004    0.3619   -5.1974 H   0  0  0  0  0  0
    1.8718   -1.6283   -4.7202 C   0  0  2  0  0  0
    1.8011   -2.6286   -5.1527 H   0  0  0  0  0  0
    1.2790   -1.6332   -3.4249 O   0  0  0  0  0  0
    3.3310   -1.1542   -4.6466 C   0  0  0  0  0  0
    4.1557   -2.1902   -4.1589 O   0  0  0  0  0  0
    1.0813   -0.7908   -6.8878 O   0  0  0  0  0  0
   -1.0287   -2.0707   -5.6839 O   0  0  0  0  0  0
   -2.6489   -2.3411   -1.8008 O   0  0  0  0  0  0
   -4.3867   -1.1131    0.1967 N   0  0  0  0  0  0
   -2.7909    0.0055    2.0340 H   0  0  0  0  0  0
   -2.7874    1.0066    0.6006 H   0  0  0  0  0  0
   -0.7650    2.0861    1.5810 H   0  0  0  0  0  0
    2.8629    4.7103    0.8248 H   0  0  0  0  0  0
    3.0115    4.5134   -0.9095 H   0  0  0  0  0  0
    1.0939    5.7531   -0.3253 H   0  0  0  0  0  0
    4.9867    2.2214    2.0476 H   0  0  0  0  0  0
    5.7789    0.7077   -0.1859 H   0  0  0  0  0  0
    2.8085   -1.7040   -0.4153 H   0  0  0  0  0  0
    3.6862   -0.8978   -5.6452 H   0  0  0  0  0  0
    3.4328   -0.2612   -4.0305 H   0  0  0  0  0  0
    5.0584   -1.9502   -4.3055 H   0  0  0  0  0  0
    0.4025   -0.2733   -7.2938 H   0  0  0  0  0  0
   -1.8675   -2.2613   -5.2923 H   0  0  0  0  0  0
   -2.2816   -3.0167   -1.2514 H   0  0  0  0  0  0
   -4.7442   -0.2788   -0.2666 H   0  0  0  0  0  0
    0.5094    4.5481    0.6316 H   0  0  0  0  0  0
    0.5744    1.2100    1.9938 H   0  0  0  0  0  0
   -4.7401   -1.9102   -0.3317 H   0  0  0  0  0  0
    4.3399   -1.6242   -1.0155 H   0  0  0  0  0  0
    0.6122    4.3315   -1.0035 H   0  0  0  0  0  0
   -0.8156    1.0533    2.8627 H   0  0  0  0  0  0
    3.0514   -1.5545   -2.0398 H   0  0  0  0  0  0
  1 10  1  0  0  0
  1  2  1  0  0  0
  1 46  1  0  0  0
  1 47  1  0  0  0
  2  3  1  0  0  0
  2  4  1  0  0  0
  2 45  1  0  0  0
  4  5  1  0  0  0
  4  6  1  0  0  0
  4 44  1  0  0  0
  6  7  1  0  0  0
  6  8  1  0  0  0
  6 30  1  0  0  0
  8  9  1  0  0  0
  8 10  1  0  0  0
  8 13  1  0  0  0
 10 11  1  0  0  0
 10 12  1  0  0  0
 12 48  1  0  0  0
 12 63  1  0  0  0
 12 67  1  0  0  0
 13 14  1  0  0  0
 14 15  1  0  0  0
 14 24  1  0  0  0
 14 16  1  0  0  0
 16 17  1  0  0  0
 16 18  1  0  0  0
 16 29  1  0  0  0
 18 19  1  0  0  0
 18 20  1  0  0  0
 18 28  1  0  0  0
 20 21  1  0  0  0
 20 22  1  0  0  0
 20 27  1  0  0  0
 22 23  1  0  0  0
 22 24  1  0  0  0
 22 25  1  0  0  0
 25 26  1  0  0  0
 25 49  1  0  0  0
 25 50  1  0  0  0
 26 51  1  0  0  0
 26 62  1  0  0  0
 26 66  1  0  0  0
 27 52  1  0  0  0
 28 53  1  0  0  0
 29 54  1  0  0  0
 29 65  1  0  0  0
 29 68  1  0  0  0
 30 31  1  0  0  0
 31 32  1  0  0  0
 31 39  1  0  0  0
 31 33  1  0  0  0
 33 34  1  0  0  0
 33 35  1  0  0  0
 33 43  1  0  0  0
 35 36  1  0  0  0
 35 37  1  0  0  0
 35 42  1  0  0  0
 37 38  1  0  0  0
 37 39  1  0  0  0
 37 40  1  0  0  0
 40 41  1  0  0  0
 40 55  1  0  0  0
 40 56  1  0  0  0
 41 57  1  0  0  0
 42 58  1  0  0  0
 43 59  1  0  0  0
 44 60  1  0  0  0
 45 61  1  0  0  0
 45 64  1  0  0  0
M  CHG  3  12   1  26   1  29   1
M  END
> <s_m_entry_id>
70

> <s_m_entry_name>
biosynth_p1.0.sdf.63

> <s_m_Source_Path>
/Users/Sebastito/Downloads

> <s_m_Source_File>
biosynth_p1.0.sdf.gz

> <i_m_Source_File_Index>
63

> <chiral flag>
1

> <version>
0

> <i_m_ct_enhanced_stereo_status>
0

> <s_m_source_file>
ligprep_vs.maegz

> <i_m_source_file_index>
63

> <i_lp_mmshare_version>
37011

> <r_epik_Ionization_Penalty>
1.45764

> <r_epik_Ionization_Penalty_Charging>
0.29448

> <r_epik_Ionization_Penalty_Neutral>
1.16316

> <r_epik_State_Penalty>
1.56395

> <r_epik_Charging_Adjusted_Penalty>
1.85843

> <i_epik_Tot_Q>
3

> <i_epik_Tot_abs_Q>
3

> <s_epik_Chemistry_Notes>
This compound contains an acetal/aminal-like group ( X-CH(R)-Y where X, Y are N, S, or O) that may be acid/base labile, releasing an aldehyde.

> <i_f3d_flags>
0

> <s_lp_Force_Field>
OPLS_2005

> <r_lp_Energy>
91.4651

> <b_lp_Chiralities_Consistent>
1

> <s_lp_Variant>
ZINC53255716-3

$$$$
ZINC53255716
                    3D
 Structure written by MMmdl.
 68 70  0  0  1  0            999 V2000
   -2.3462   -0.4282    1.1831 C   0  0  0  0  0  0
   -2.7614   -1.5657    0.2509 C   0  0  2  0  0  0
   -2.3012   -2.4892    0.6068 H   0  0  0  0  0  0
   -2.2999   -1.2808   -1.1919 C   0  0  1  0  0  0
   -2.8960   -0.4668   -1.6076 H   0  0  0  0  0  0
   -0.7876   -0.9288   -1.3101 C   0  0  2  0  0  0
   -0.1853   -1.8381   -1.2629 H   0  0  0  0  0  0
   -0.2744    0.0494   -0.2087 C   0  0  1  0  0  0
   -0.5516    1.0739   -0.4647 H   0  0  0  0  0  0
   -0.8236   -0.2631    1.2014 C   0  0  1  0  0  0
   -0.3926   -1.2095    1.5315 H   0  0  0  0  0  0
   -0.4528    0.7830    2.1682 N   0  0  0  0  0  0
    1.1408   -0.0778   -0.0466 O   0  0  0  0  0  0
    1.9633    0.4792   -1.0302 C   0  0  2  0  0  0
    1.7416    0.0320   -1.9955 H   0  0  0  0  0  0
    3.4319    0.1819   -0.6714 C   0  0  1  0  0  0
    4.0537    0.5735   -1.4782 H   0  0  0  0  0  0
    3.7812    0.8943    0.6476 C   0  0  2  0  0  0
    3.2159    0.4582    1.4731 H   0  0  0  0  0  0
    3.4862    2.4017    0.5234 C   0  0  1  0  0  0
    4.2012    2.8663   -0.1578 H   0  0  0  0  0  0
    2.0466    2.6463    0.0042 C   0  0  2  0  0  0
    1.3199    2.3560    0.7629 H   0  0  0  0  0  0
    1.8146    1.8627   -1.1672 O   0  0  0  0  0  0
    1.7812    4.1066   -0.4153 C   0  0  0  0  0  0
    1.6672    5.0212    0.7357 N   0  3  0  0  0  0
    3.6183    2.9825    1.8073 O   0  0  0  0  0  0
    5.1650    0.7222    0.8936 O   0  0  0  0  0  0
    3.6613   -1.2734   -0.5896 N   0  3  0  0  0  0
   -0.5928   -0.2117   -2.5300 O   0  0  0  0  0  0
   -0.4191   -0.9667   -3.6897 C   0  0  1  0  0  0
   -1.2801   -1.6102   -3.8632 H   0  0  0  0  0  0
   -0.2351    0.0160   -4.8628 C   0  0  1  0  0  0
   -0.5044    1.0297   -4.5628 H   0  0  0  0  0  0
    1.2535   -0.0993   -5.1670 C   0  0  1  0  0  0
    1.8035    0.5680   -4.5025 H   0  0  0  0  0  0
    1.5192   -1.5567   -4.8035 C   0  0  2  0  0  0
    1.0879   -2.2006   -5.5726 H   0  0  0  0  0  0
    0.7372   -1.7574   -3.6341 O   0  0  0  0  0  0
    2.9848   -1.9793   -4.5935 C   0  0  0  0  0  0
    3.7119   -1.0537   -3.8128 O   0  0  0  0  0  0
    1.5732    0.2139   -6.5091 O   0  0  0  0  0  0
   -1.0498   -0.3467   -5.9641 O   0  0  0  0  0  0
   -2.5561   -2.4701   -1.9156 O   0  0  0  0  0  0
   -4.2252   -1.7484    0.3079 N   0  3  0  0  0  0
   -2.7018   -0.6376    2.1935 H   0  0  0  0  0  0
   -2.8210    0.5045    0.8734 H   0  0  0  0  0  0
    0.5583    0.9048    2.1908 H   0  0  0  0  0  0
    2.5637    4.4637   -1.0857 H   0  0  0  0  0  0
    0.8432    4.1647   -0.9684 H   0  0  0  0  0  0
    1.4965    5.9599    0.4035 H   0  0  0  0  0  0
    3.1028    2.4843    2.4234 H   0  0  0  0  0  0
    5.6555    1.1934    0.2368 H   0  0  0  0  0  0
    3.0629   -1.6703    0.1204 H   0  0  0  0  0  0
    3.0410   -2.9691   -4.1401 H   0  0  0  0  0  0
    3.4795   -2.0466   -5.5627 H   0  0  0  0  0  0
    4.6293   -1.2765   -3.8695 H   0  0  0  0  0  0
    1.0131   -0.2961   -7.0752 H   0  0  0  0  0  0
   -1.9564   -0.2488   -5.7157 H   0  0  0  0  0  0
   -1.9938   -3.1554   -1.5869 H   0  0  0  0  0  0
   -4.6864   -0.9040    0.0010 H   0  0  0  0  0  0
    2.5277    5.0055    1.2654 H   0  0  0  0  0  0
   -0.8563    1.6792    1.8991 H   0  0  0  0  0  0
   -4.5057   -1.9604    1.2549 H   0  0  0  0  0  0
    4.6270   -1.4468   -0.3494 H   0  0  0  0  0  0
    0.9027    4.7325    1.3290 H   0  0  0  0  0  0
   -4.4898   -2.5115   -0.2991 H   0  0  0  0  0  0
    3.4544   -1.6975   -1.4829 H   0  0  0  0  0  0
  1 10  1  0  0  0
  1  2  1  0  0  0
  1 46  1  0  0  0
  1 47  1  0  0  0
  2  3  1  0  0  0
  2  4  1  0  0  0
  2 45  1  0  0  0
  4  5  1  0  0  0
  4  6  1  0  0  0
  4 44  1  0  0  0
  6  7  1  0  0  0
  6  8  1  0  0  0
  6 30  1  0  0  0
  8  9  1  0  0  0
  8 10  1  0  0  0
  8 13  1  0  0  0
 10 11  1  0  0  0
 10 12  1  0  0  0
 12 48  1  0  0  0
 12 63  1  0  0  0
 13 14  1  0  0  0
 14 15  1  0  0  0
 14 24  1  0  0  0
 14 16  1  0  0  0
 16 17  1  0  0  0
 16 18  1  0  0  0
 16 29  1  0  0  0
 18 19  1  0  0  0
 18 20  1  0  0  0
 18 28  1  0  0  0
 20 21  1  0  0  0
 20 22  1  0  0  0
 20 27  1  0  0  0
 22 23  1  0  0  0
 22 24  1  0  0  0
 22 25  1  0  0  0
 25 26  1  0  0  0
 25 49  1  0  0  0
 25 50  1  0  0  0
 26 51  1  0  0  0
 26 62  1  0  0  0
 26 66  1  0  0  0
 27 52  1  0  0  0
 28 53  1  0  0  0
 29 54  1  0  0  0
 29 65  1  0  0  0
 29 68  1  0  0  0
 30 31  1  0  0  0
 31 32  1  0  0  0
 31 39  1  0  0  0
 31 33  1  0  0  0
 33 34  1  0  0  0
 33 35  1  0  0  0
 33 43  1  0  0  0
 35 36  1  0  0  0
 35 37  1  0  0  0
 35 42  1  0  0  0
 37 38  1  0  0  0
 37 39  1  0  0  0
 37 40  1  0  0  0
 40 41  1  0  0  0
 40 55  1  0  0  0
 40 56  1  0  0  0
 41 57  1  0  0  0
 42 58  1  0  0  0
 43 59  1  0  0  0
 44 60  1  0  0  0
 45 61  1  0  0  0
 45 64  1  0  0  0
 45 67  1  0  0  0
M  CHG  3  26   1  29   1  45   1
M  END
> <s_m_entry_id>
70

> <s_m_entry_name>
biosynth_p1.0.sdf.63

> <s_m_Source_Path>
/Users/Sebastito/Downloads

> <s_m_Source_File>
biosynth_p1.0.sdf.gz

> <i_m_Source_File_Index>
63

> <chiral flag>
1

> <version>
0

> <i_m_ct_enhanced_stereo_status>
0

> <s_m_source_file>
ligprep_vs.maegz

> <i_m_source_file_index>
63

> <i_lp_mmshare_version>
37011

> <r_epik_Ionization_Penalty>
1.45894

> <r_epik_Ionization_Penalty_Charging>
0.279117

> <r_epik_Ionization_Penalty_Neutral>
1.17982

> <r_epik_State_Penalty>
1.60291

> <r_epik_Charging_Adjusted_Penalty>
1.88203

> <i_epik_Tot_Q>
3

> <i_epik_Tot_abs_Q>
3

> <s_epik_Chemistry_Notes>
This compound contains an acetal/aminal-like group ( X-CH(R)-Y where X, Y are N, S, or O) that may be acid/base labile, releasing an aldehyde.

> <i_f3d_flags>
0

> <s_lp_Force_Field>
OPLS_2005

> <r_lp_Energy>
85.591

> <b_lp_Chiralities_Consistent>
1

> <s_lp_Variant>
ZINC53255716-4

$$$$
ZINC53255716
                    3D
 Structure written by MMmdl.
 67 69  0  0  1  0            999 V2000
   -1.8066   -0.5058    1.6692 C   0  0  0  0  0  0
   -2.2310   -1.6882    0.7944 C   0  0  2  0  0  0
   -1.5700   -2.5271    1.0170 H   0  0  0  0  0  0
   -2.0825   -1.3226   -0.6946 C   0  0  1  0  0  0
   -2.8332   -0.5811   -0.9734 H   0  0  0  0  0  0
   -0.6659   -0.8109   -1.0491 C   0  0  2  0  0  0
    0.0235   -1.6589   -1.0414 H   0  0  0  0  0  0
   -0.1419    0.2950   -0.0905 C   0  0  1  0  0  0
   -0.6533    1.2297   -0.3279 H   0  0  0  0  0  0
   -0.3618   -0.0644    1.4037 C   0  0  1  0  0  0
    0.3097   -0.8801    1.6755 H   0  0  0  0  0  0
   -0.0739    1.0793    2.2901 N   0  3  0  0  0  0
    1.2504    0.3851   -0.3933 O   0  0  0  0  0  0
    1.9535    1.5082    0.0481 C   0  0  2  0  0  0
    1.2727    2.3370    0.2488 H   0  0  0  0  0  0
    2.9574    1.9287   -1.0437 C   0  0  1  0  0  0
    3.5154    2.7767   -0.6435 H   0  0  0  0  0  0
    3.9402    0.7694   -1.2934 C   0  0  2  0  0  0
    3.4336   -0.0732   -1.7666 H   0  0  0  0  0  0
    4.5990    0.3444    0.0341 C   0  0  1  0  0  0
    5.3083    1.1079    0.3587 H   0  0  0  0  0  0
    3.5480    0.1156    1.1466 C   0  0  2  0  0  0
    2.9706   -0.7828    0.9197 H   0  0  0  0  0  0
    2.6695    1.2433    1.2200 O   0  0  0  0  0  0
    4.2016   -0.0523    2.5313 C   0  0  0  0  0  0
    3.2395   -0.5310    3.5388 N   0  3  0  0  0  0
    5.2855   -0.8729   -0.1840 O   0  0  0  0  0  0
    4.9669    1.2435   -2.1446 O   0  0  0  0  0  0
    2.2558    2.3675   -2.2611 N   0  0  0  0  0  0
   -0.7944   -0.2357   -2.3481 O   0  0  0  0  0  0
    0.2793   -0.4269   -3.2187 C   0  0  1  0  0  0
    1.2265   -0.4446   -2.6814 H   0  0  0  0  0  0
    0.0464   -1.7094   -4.0254 C   0  0  1  0  0  0
   -0.5833   -2.4089   -3.4773 H   0  0  0  0  0  0
   -0.6506   -1.1655   -5.2601 C   0  0  1  0  0  0
   -1.7031   -0.9927   -5.0299 H   0  0  0  0  0  0
    0.0583    0.1711   -5.4709 C   0  0  2  0  0  0
    1.0054    0.0050   -5.9881 H   0  0  0  0  0  0
    0.3324    0.6188   -4.1442 O   0  0  0  0  0  0
   -0.8030    1.2121   -6.2014 C   0  0  0  0  0  0
    0.0118    2.2568   -6.6875 O   0  0  0  0  0  0
   -0.5565   -2.0389   -6.3685 O   0  0  0  0  0  0
    1.2706   -2.3624   -4.3106 O   0  0  0  0  0  0
   -2.2897   -2.5153   -1.4260 O   0  0  0  0  0  0
   -3.6143   -2.0720    1.1201 N   0  0  0  0  0  0
   -1.9161   -0.7776    2.7205 H   0  0  0  0  0  0
   -2.4839    0.3331    1.4975 H   0  0  0  0  0  0
   -0.6971    1.8429    2.0674 H   0  0  0  0  0  0
    5.0089   -0.7837    2.4842 H   0  0  0  0  0  0
    4.6435    0.8866    2.8663 H   0  0  0  0  0  0
    3.7128   -0.6480    4.4240 H   0  0  0  0  0  0
    5.9053   -0.7442   -0.8869 H   0  0  0  0  0  0
    5.3845    1.9859   -1.7354 H   0  0  0  0  0  0
    1.6847    3.1905   -2.0737 H   0  0  0  0  0  0
   -1.2965    0.7550   -7.0596 H   0  0  0  0  0  0
   -1.5840    1.6086   -5.5518 H   0  0  0  0  0  0
    0.4367    2.6719   -5.9525 H   0  0  0  0  0  0
    0.3569   -2.2330   -6.5163 H   0  0  0  0  0  0
    1.6464   -2.6692   -3.4999 H   0  0  0  0  0  0
   -2.2866   -2.3073   -2.3481 H   0  0  0  0  0  0
   -4.2570   -1.3121    0.9013 H   0  0  0  0  0  0
    2.8576   -1.4191    3.2457 H   0  0  0  0  0  0
    0.8821    1.3784    2.1593 H   0  0  0  0  0  0
   -3.9012   -2.8654    0.5475 H   0  0  0  0  0  0
    2.9260    2.6268   -2.9844 H   0  0  0  0  0  0
    2.4949    0.1422    3.6446 H   0  0  0  0  0  0
   -0.2164    0.8057    3.2520 H   0  0  0  0  0  0
  1 10  1  0  0  0
  1  2  1  0  0  0
  1 46  1  0  0  0
  1 47  1  0  0  0
  2  3  1  0  0  0
  2  4  1  0  0  0
  2 45  1  0  0  0
  4  5  1  0  0  0
  4  6  1  0  0  0
  4 44  1  0  0  0
  6  7  1  0  0  0
  6  8  1  0  0  0
  6 30  1  0  0  0
  8  9  1  0  0  0
  8 10  1  0  0  0
  8 13  1  0  0  0
 10 11  1  0  0  0
 10 12  1  0  0  0
 12 48  1  0  0  0
 12 63  1  0  0  0
 12 67  1  0  0  0
 13 14  1  0  0  0
 14 15  1  0  0  0
 14 24  1  0  0  0
 14 16  1  0  0  0
 16 17  1  0  0  0
 16 18  1  0  0  0
 16 29  1  0  0  0
 18 19  1  0  0  0
 18 20  1  0  0  0
 18 28  1  0  0  0
 20 21  1  0  0  0
 20 22  1  0  0  0
 20 27  1  0  0  0
 22 23  1  0  0  0
 22 24  1  0  0  0
 22 25  1  0  0  0
 25 26  1  0  0  0
 25 49  1  0  0  0
 25 50  1  0  0  0
 26 51  1  0  0  0
 26 62  1  0  0  0
 26 66  1  0  0  0
 27 52  1  0  0  0
 28 53  1  0  0  0
 29 54  1  0  0  0
 29 65  1  0  0  0
 30 31  1  0  0  0
 31 32  1  0  0  0
 31 39  1  0  0  0
 31 33  1  0  0  0
 33 34  1  0  0  0
 33 35  1  0  0  0
 33 43  1  0  0  0
 35 36  1  0  0  0
 35 37  1  0  0  0
 35 42  1  0  0  0
 37 38  1  0  0  0
 37 39  1  0  0  0
 37 40  1  0  0  0
 40 41  1  0  0  0
 40 55  1  0  0  0
 40 56  1  0  0  0
 41 57  1  0  0  0
 42 58  1  0  0  0
 43 59  1  0  0  0
 44 60  1  0  0  0
 45 61  1  0  0  0
 45 64  1  0  0  0
M  CHG  2  12   1  26   1
M  END
> <s_m_entry_id>
70

> <s_m_entry_name>
biosynth_p1.0.sdf.63

> <s_m_Source_Path>
/Users/Sebastito/Downloads

> <s_m_Source_File>
biosynth_p1.0.sdf.gz

> <i_m_Source_File_Index>
63

> <chiral flag>
1

> <version>
0

> <i_m_ct_enhanced_stereo_status>
0

> <s_m_source_file>
ligprep_vs.maegz

> <i_m_source_file_index>
63

> <i_lp_mmshare_version>
37011

> <r_epik_Ionization_Penalty>
1.79359

> <r_epik_Ionization_Penalty_Charging>
0.0166188

> <r_epik_Ionization_Penalty_Neutral>
1.77697

> <r_epik_State_Penalty>
1.89827

> <r_epik_Charging_Adjusted_Penalty>
1.91489

> <i_epik_Tot_Q>
2

> <i_epik_Tot_abs_Q>
2

> <s_epik_Chemistry_Notes>
This compound contains an acetal/aminal-like group ( X-CH(R)-Y where X, Y are N, S, or O) that may be acid/base labile, releasing an aldehyde.

> <i_f3d_flags>
0

> <s_lp_Force_Field>
OPLS_2005

> <r_lp_Energy>
91.5514

> <b_lp_Chiralities_Consistent>
1

> <s_lp_Variant>
ZINC53255716-5

$$$$
ZINC53255716
                    3D
 Structure written by MMmdl.
 67 69  0  0  1  0            999 V2000
   -1.7638   -0.2699    1.3951 C   0  0  0  0  0  0
   -2.2597   -1.4093    0.5019 C   0  0  2  0  0  0
   -1.6961   -2.3131    0.7397 H   0  0  0  0  0  0
   -2.0534   -1.0480   -0.9782 C   0  0  1  0  0  0
   -2.6942   -0.2078   -1.2520 H   0  0  0  0  0  0
   -0.5778   -0.7127   -1.2857 C   0  0  2  0  0  0
    0.0110   -1.6310   -1.2231 H   0  0  0  0  0  0
    0.0173    0.3607   -0.3306 C   0  0  1  0  0  0
   -0.3981    1.3316   -0.6083 H   0  0  0  0  0  0
   -0.2797    0.0634    1.1665 C   0  0  1  0  0  0
    0.3092   -0.8074    1.4569 H   0  0  0  0  0  0
    0.0728    1.1954    2.0393 N   0  0  0  0  0  0
    1.4223    0.3049   -0.5829 O   0  0  0  0  0  0
    2.1905    1.4209   -0.2337 C   0  0  2  0  0  0
    1.5765    2.3230   -0.2200 H   0  0  0  0  0  0
    3.3292    1.5902   -1.2600 C   0  0  1  0  0  0
    3.9253    2.4385   -0.9197 H   0  0  0  0  0  0
    4.2154    0.3296   -1.2364 C   0  0  2  0  0  0
    3.6757   -0.5300   -1.6375 H   0  0  0  0  0  0
    4.7034    0.0586    0.2027 C   0  0  1  0  0  0
    5.4443    0.8066    0.4903 H   0  0  0  0  0  0
    3.5343    0.0902    1.2152 C   0  0  2  0  0  0
    2.8941   -0.7809    1.0621 H   0  0  0  0  0  0
    2.7738    1.2851    1.0283 O   0  0  0  0  0  0
    4.0254    0.0951    2.6740 C   0  0  0  0  0  0
    2.9110   -0.0766    3.6224 N   0  3  0  0  0  0
    5.2972   -1.2257    0.2448 O   0  0  0  0  0  0
    5.3577    0.5893   -2.0301 O   0  0  0  0  0  0
    2.7968    1.9076   -2.5955 N   0  0  0  0  0  0
   -0.5885   -0.1689   -2.6036 O   0  0  0  0  0  0
    0.4786   -0.5265   -3.4300 C   0  0  1  0  0  0
    1.4091   -0.5697   -2.8655 H   0  0  0  0  0  0
    0.1554   -1.8543   -4.1276 C   0  0  1  0  0  0
   -0.4382   -2.5018   -3.4840 H   0  0  0  0  0  0
   -0.6314   -1.3747   -5.3369 C   0  0  1  0  0  0
   -1.6598   -1.1877   -5.0270 H   0  0  0  0  0  0
    0.0860   -0.0646   -5.6751 C   0  0  2  0  0  0
    0.9531   -0.2910   -6.2980 H   0  0  0  0  0  0
    0.6261    0.4189   -4.4477 O   0  0  0  0  0  0
   -0.7424    1.0263   -6.3775 C   0  0  0  0  0  0
   -1.9808    1.2488   -5.7347 O   0  0  0  0  0  0
   -0.6373   -2.3091   -6.3989 O   0  0  0  0  0  0
    1.3410   -2.5553   -4.4569 O   0  0  0  0  0  0
   -2.4178   -2.1845   -1.7371 O   0  0  0  0  0  0
   -3.6831   -1.6816    0.7810 N   0  3  0  0  0  0
   -1.9177   -0.5360    2.4422 H   0  0  0  0  0  0
   -2.3695    0.6201    1.2141 H   0  0  0  0  0  0
    1.0235    1.5078    1.8437 H   0  0  0  0  0  0
    4.7304   -0.7194    2.8422 H   0  0  0  0  0  0
    4.5512    1.0234    2.8994 H   0  0  0  0  0  0
    3.2676   -0.0581    4.5676 H   0  0  0  0  0  0
    4.6851   -1.8544   -0.1060 H   0  0  0  0  0  0
    5.0775    0.7320   -2.9214 H   0  0  0  0  0  0
    2.2344    2.7569   -2.5655 H   0  0  0  0  0  0
   -0.1828    1.9607   -6.4254 H   0  0  0  0  0  0
   -0.9486    0.7255   -7.4047 H   0  0  0  0  0  0
   -2.4465    1.9221   -6.2071 H   0  0  0  0  0  0
   -1.1157   -1.9369   -7.1239 H   0  0  0  0  0  0
    1.7863   -2.7903   -3.6578 H   0  0  0  0  0  0
   -2.3155   -1.9772   -2.6543 H   0  0  0  0  0  0
   -4.2316   -0.8569    0.5836 H   0  0  0  0  0  0
    2.4557   -0.9619    3.4532 H   0  0  0  0  0  0
   -0.5362    1.9916    1.8528 H   0  0  0  0  0  0
   -3.7979   -1.9402    1.7504 H   0  0  0  0  0  0
    3.5569    2.0783   -3.2524 H   0  0  0  0  0  0
    2.2451    0.6732    3.5002 H   0  0  0  0  0  0
   -3.9962   -2.4398    0.1909 H   0  0  0  0  0  0
  1 10  1  0  0  0
  1  2  1  0  0  0
  1 46  1  0  0  0
  1 47  1  0  0  0
  2  3  1  0  0  0
  2  4  1  0  0  0
  2 45  1  0  0  0
  4  5  1  0  0  0
  4  6  1  0  0  0
  4 44  1  0  0  0
  6  7  1  0  0  0
  6  8  1  0  0  0
  6 30  1  0  0  0
  8  9  1  0  0  0
  8 10  1  0  0  0
  8 13  1  0  0  0
 10 11  1  0  0  0
 10 12  1  0  0  0
 12 48  1  0  0  0
 12 63  1  0  0  0
 13 14  1  0  0  0
 14 15  1  0  0  0
 14 24  1  0  0  0
 14 16  1  0  0  0
 16 17  1  0  0  0
 16 18  1  0  0  0
 16 29  1  0  0  0
 18 19  1  0  0  0
 18 20  1  0  0  0
 18 28  1  0  0  0
 20 21  1  0  0  0
 20 22  1  0  0  0
 20 27  1  0  0  0
 22 23  1  0  0  0
 22 24  1  0  0  0
 22 25  1  0  0  0
 25 26  1  0  0  0
 25 49  1  0  0  0
 25 50  1  0  0  0
 26 51  1  0  0  0
 26 62  1  0  0  0
 26 66  1  0  0  0
 27 52  1  0  0  0
 28 53  1  0  0  0
 29 54  1  0  0  0
 29 65  1  0  0  0
 30 31  1  0  0  0
 31 32  1  0  0  0
 31 39  1  0  0  0
 31 33  1  0  0  0
 33 34  1  0  0  0
 33 35  1  0  0  0
 33 43  1  0  0  0
 35 36  1  0  0  0
 35 37  1  0  0  0
 35 42  1  0  0  0
 37 38  1  0  0  0
 37 39  1  0  0  0
 37 40  1  0  0  0
 40 41  1  0  0  0
 40 55  1  0  0  0
 40 56  1  0  0  0
 41 57  1  0  0  0
 42 58  1  0  0  0
 43 59  1  0  0  0
 44 60  1  0  0  0
 45 61  1  0  0  0
 45 64  1  0  0  0
 45 67  1  0  0  0
M  CHG  2  26   1  45   1
M  END
> <s_m_entry_id>
70

> <s_m_entry_name>
biosynth_p1.0.sdf.63

> <s_m_Source_Path>
/Users/Sebastito/Downloads

> <s_m_Source_File>
biosynth_p1.0.sdf.gz

> <i_m_Source_File_Index>
63

> <chiral flag>
1

> <version>
0

> <i_m_ct_enhanced_stereo_status>
0

> <s_m_source_file>
ligprep_vs.maegz

> <i_m_source_file_index>
63

> <i_lp_mmshare_version>
37011

> <r_epik_Ionization_Penalty>
1.95184

> <r_epik_Ionization_Penalty_Charging>
0.0242545

> <r_epik_Ionization_Penalty_Neutral>
1.92759

> <r_epik_State_Penalty>
2.0177

> <r_epik_Charging_Adjusted_Penalty>
2.04196

> <i_epik_Tot_Q>
2

> <i_epik_Tot_abs_Q>
2

> <s_epik_Chemistry_Notes>
This compound contains an acetal/aminal-like group ( X-CH(R)-Y where X, Y are N, S, or O) that may be acid/base labile, releasing an aldehyde.

> <i_f3d_flags>
0

> <s_lp_Force_Field>
OPLS_2005

> <r_lp_Energy>
87.5542

> <b_lp_Chiralities_Consistent>
1

> <s_lp_Variant>
ZINC53255716-6

$$$$
ZINC53132258
                    3D
 Structure written by MMmdl.
 75 77  0  0  1  0            999 V2000
   -2.4542    0.2068    0.9210 C   0  0  0  0  0  0
   -0.9271    0.0951    0.8711 C   0  0  1  0  0  0
   -0.6614   -0.9590    0.9696 H   0  0  0  0  0  0
   -0.3543    0.6334   -0.4591 C   0  0  2  0  0  0
   -0.4021    1.7243   -0.4396 H   0  0  0  0  0  0
   -1.0976    0.0763   -1.7121 C   0  0  1  0  0  0
   -0.6554   -0.8840   -1.9736 H   0  0  0  0  0  0
   -2.6438   -0.0869   -1.5894 C   0  0  2  0  0  0
   -3.1406    0.8724   -1.7523 H   0  0  0  0  0  0
   -3.0858   -0.6116   -0.2094 C   0  0  2  0  0  0
   -2.7701   -1.6510   -0.1039 H   0  0  0  0  0  0
   -4.5574   -0.5896   -0.0892 N   0  3  0  0  0  0
   -3.1308   -1.0773   -2.5011 O   0  0  0  0  0  0
   -3.2205   -0.7087   -3.8480 C   0  0  2  0  0  0
   -3.4901    0.3453   -3.9347 H   0  0  0  0  0  0
   -4.2925   -1.5746   -4.5402 C   0  0  1  0  0  0
   -4.3473   -1.2470   -5.5798 H   0  0  0  0  0  0
   -3.8781   -3.0583   -4.4962 C   0  0  2  0  0  0
   -3.8714   -3.4069   -3.4622 H   0  0  0  0  0  0
   -2.4719   -3.2078   -5.1123 C   0  0  1  0  0  0
   -2.5152   -3.0163   -6.1858 H   0  0  0  0  0  0
   -1.4766   -2.2238   -4.4546 C   0  0  2  0  0  0
   -1.3270   -2.5180   -3.4147 H   0  0  0  0  0  0
   -2.0189   -0.9031   -4.5330 O   0  0  0  0  0  0
   -0.1122   -2.1805   -5.1651 C   0  0  0  0  0  0
    0.8323   -1.5326   -4.3373 O   0  0  0  0  0  0
   -2.0240   -4.5337   -4.9016 O   0  0  0  0  0  0
   -4.8474   -3.8788   -5.2490 N   0  3  0  0  0  0
   -5.5690   -1.3566   -3.9724 O   0  0  0  0  0  0
   -0.8867    1.0200   -2.7473 O   0  0  0  0  0  0
    1.0034    0.1794   -0.4351 O   0  0  0  0  0  0
    1.8913    0.6819   -1.3943 C   0  0  2  0  0  0
    1.5142    0.4910   -2.3968 H   0  0  0  0  0  0
    3.2463   -0.0365   -1.2388 C   0  0  1  0  0  0
    3.9147    0.3515   -2.0093 H   0  0  0  0  0  0
    3.8162    0.2788    0.1560 C   0  0  2  0  0  0
    3.1872   -0.1625    0.9313 H   0  0  0  0  0  0
    3.9218    1.8043    0.3426 C   0  0  1  0  0  0
    4.7299    2.1993   -0.2757 H   0  0  0  0  0  0
    2.5960    2.5188   -0.0192 C   0  0  2  0  0  0
    1.8465    2.3076    0.7455 H   0  0  0  0  0  0
    2.1097    2.0589   -1.2819 O   0  0  0  0  0  0
    2.7891    4.0432   -0.1371 C   0  0  0  0  0  0
    1.5122    4.7535   -0.3271 N   0  3  0  0  0  0
    4.1979    2.0640    1.7049 O   0  0  0  0  0  0
    5.1155   -0.2763    0.2461 O   0  0  0  0  0  0
    3.1012   -1.4880   -1.4663 N   0  3  0  0  0  0
   -0.3349    0.7977    2.0269 N   0  3  0  0  0  0
   -2.7602    1.2522    0.8494 H   0  0  0  0  0  0
   -2.8164   -0.1592    1.8834 H   0  0  0  0  0  0
   -4.8966    0.3588   -0.1656 H   0  0  0  0  0  0
    0.2570   -3.1889   -5.3529 H   0  0  0  0  0  0
   -0.1794   -1.6765   -6.1299 H   0  0  0  0  0  0
    0.5937   -0.6193   -4.2854 H   0  0  0  0  0  0
   -1.9299   -4.6830   -3.9731 H   0  0  0  0  0  0
   -4.8732   -3.5756   -6.2121 H   0  0  0  0  0  0
   -5.8220   -0.4593   -4.1316 H   0  0  0  0  0  0
   -1.3316    1.8244   -2.5266 H   0  0  0  0  0  0
    3.2557    4.4389    0.7655 H   0  0  0  0  0  0
    3.4542    4.2811   -0.9680 H   0  0  0  0  0  0
    1.6915    5.7455   -0.4005 H   0  0  0  0  0  0
    5.0250    1.6618    1.9270 H   0  0  0  0  0  0
    5.6789    0.1519   -0.3812 H   0  0  0  0  0  0
    2.4610   -1.8777   -0.7898 H   0  0  0  0  0  0
   -0.5740    1.7785    1.9955 H   0  0  0  0  0  0
    0.9043    4.5842    0.4611 H   0  0  0  0  0  0
   -4.8325   -0.9705    0.8055 H   0  0  0  0  0  0
    0.6700    0.6951    2.0101 H   0  0  0  0  0  0
   -5.7651   -3.7753   -4.8399 H   0  0  0  0  0  0
    4.0029   -1.9329   -1.3648 H   0  0  0  0  0  0
    1.0695    4.4339   -1.1766 H   0  0  0  0  0  0
   -0.6919    0.3978    2.8838 H   0  0  0  0  0  0
   -4.5675   -4.8489   -5.2116 H   0  0  0  0  0  0
   -4.9643   -1.1491   -0.8256 H   0  0  0  0  0  0
    2.7506   -1.6543   -2.3993 H   0  0  0  0  0  0
  1 10  1  0  0  0
  1  2  1  0  0  0
  1 49  1  0  0  0
  1 50  1  0  0  0
  2  3  1  0  0  0
  2  4  1  0  0  0
  2 48  1  0  0  0
  4  5  1  0  0  0
  4  6  1  0  0  0
  4 31  1  0  0  0
  6  7  1  0  0  0
  6  8  1  0  0  0
  6 30  1  0  0  0
  8  9  1  0  0  0
  8 10  1  0  0  0
  8 13  1  0  0  0
 10 11  1  0  0  0
 10 12  1  0  0  0
 12 51  1  0  0  0
 12 67  1  0  0  0
 12 74  1  0  0  0
 13 14  1  0  0  0
 14 15  1  0  0  0
 14 24  1  0  0  0
 14 16  1  0  0  0
 16 17  1  0  0  0
 16 18  1  0  0  0
 16 29  1  0  0  0
 18 19  1  0  0  0
 18 20  1  0  0  0
 18 28  1  0  0  0
 20 21  1  0  0  0
 20 22  1  0  0  0
 20 27  1  0  0  0
 22 23  1  0  0  0
 22 24  1  0  0  0
 22 25  1  0  0  0
 25 26  1  0  0  0
 25 52  1  0  0  0
 25 53  1  0  0  0
 26 54  1  0  0  0
 27 55  1  0  0  0
 28 56  1  0  0  0
 28 69  1  0  0  0
 28 73  1  0  0  0
 29 57  1  0  0  0
 30 58  1  0  0  0
 31 32  1  0  0  0
 32 33  1  0  0  0
 32 42  1  0  0  0
 32 34  1  0  0  0
 34 35  1  0  0  0
 34 36  1  0  0  0
 34 47  1  0  0  0
 36 37  1  0  0  0
 36 38  1  0  0  0
 36 46  1  0  0  0
 38 39  1  0  0  0
 38 40  1  0  0  0
 38 45  1  0  0  0
 40 41  1  0  0  0
 40 42  1  0  0  0
 40 43  1  0  0  0
 43 44  1  0  0  0
 43 59  1  0  0  0
 43 60  1  0  0  0
 44 61  1  0  0  0
 44 66  1  0  0  0
 44 71  1  0  0  0
 45 62  1  0  0  0
 46 63  1  0  0  0
 47 64  1  0  0  0
 47 70  1  0  0  0
 47 75  1  0  0  0
 48 65  1  0  0  0
 48 68  1  0  0  0
 48 72  1  0  0  0
M  CHG  5  12   1  28   1  44   1  47   1  48   1
M  END
> <s_m_entry_id>
71

> <s_m_entry_name>
biosynth_p1.0.sdf.64

> <s_m_Source_Path>
/Users/Sebastito/Downloads

> <s_m_Source_File>
biosynth_p1.0.sdf.gz

> <i_m_Source_File_Index>
64

> <chiral flag>
1

> <version>
0

> <i_m_ct_enhanced_stereo_status>
0

> <s_m_source_file>
ligprep_vs.maegz

> <i_m_source_file_index>
64

> <i_lp_mmshare_version>
37011

> <r_epik_Ionization_Penalty>
0.493264

> <r_epik_Ionization_Penalty_Charging>
0.49282

> <r_epik_Ionization_Penalty_Neutral>
0.000444305

> <r_epik_State_Penalty>
0.44668

> <r_epik_Charging_Adjusted_Penalty>
0.9395

> <i_epik_Tot_Q>
5

> <i_epik_Tot_abs_Q>
5

> <s_epik_Chemistry_Notes>
This compound contains an acetal/aminal-like group ( X-CH(R)-Y where X, Y are N, S, or O) that may be acid/base labile, releasing an aldehyde.

> <i_f3d_flags>
0

> <s_lp_Force_Field>
OPLS_2005

> <r_lp_Energy>
103.226

> <b_lp_Chiralities_Consistent>
1

> <s_lp_Variant>
ZINC53132258-1

$$$$
ZINC53132258
                    3D
 Structure written by MMmdl.
 74 76  0  0  1  0            999 V2000
   -2.0883   -0.3235    0.7623 C   0  0  0  0  0  0
   -0.5803   -0.0609    0.9064 C   0  0  1  0  0  0
   -0.0808   -1.0063    1.1231 H   0  0  0  0  0  0
    0.0145    0.5342   -0.3938 C   0  0  2  0  0  0
   -0.3454    1.5558   -0.5364 H   0  0  0  0  0  0
   -0.3476   -0.3029   -1.6459 C   0  0  1  0  0  0
    0.2881   -1.1865   -1.6786 H   0  0  0  0  0  0
   -1.8490   -0.6881   -1.7309 C   0  0  2  0  0  0
   -2.4132    0.2232   -1.9388 H   0  0  0  0  0  0
   -2.3964   -1.2705   -0.4059 C   0  0  2  0  0  0
   -1.9296   -2.2317   -0.1907 H   0  0  0  0  0  0
   -3.8524   -1.4929   -0.4948 N   0  3  0  0  0  0
   -2.0728   -1.5604   -2.8459 O   0  0  0  0  0  0
   -1.6228   -2.8854   -2.7795 C   0  0  2  0  0  0
   -0.8008   -3.0008   -2.0742 H   0  0  0  0  0  0
   -1.1592   -3.3278   -4.1824 C   0  0  1  0  0  0
   -0.8434   -4.3697   -4.1058 H   0  0  0  0  0  0
   -2.3321   -3.2188   -5.1742 C   0  0  2  0  0  0
   -2.6462   -2.1776   -5.2659 H   0  0  0  0  0  0
   -3.4965   -4.0825   -4.6539 C   0  0  1  0  0  0
   -3.2322   -5.1356   -4.7594 H   0  0  0  0  0  0
   -3.8131   -3.7573   -3.1711 C   0  0  2  0  0  0
   -4.2394   -2.7539   -3.1219 H   0  0  0  0  0  0
   -2.6334   -3.7548   -2.3616 O   0  0  0  0  0  0
   -4.8292   -4.7065   -2.5063 C   0  0  0  0  0  0
   -4.4685   -6.0605   -2.6827 O   0  0  0  0  0  0
   -4.6450   -3.8167   -5.4366 O   0  0  0  0  0  0
   -1.9150   -3.6866   -6.5107 N   0  3  0  0  0  0
   -0.0291   -2.5895   -4.6026 O   0  0  0  0  0  0
   -0.0764    0.5115   -2.7697 O   0  0  0  0  0  0
    1.4379    0.4635   -0.3300 O   0  0  0  0  0  0
    2.1086    1.5474    0.2447 C   0  0  2  0  0  0
    1.4201    2.3498    0.5148 H   0  0  0  0  0  0
    3.1487    2.0776   -0.7628 C   0  0  1  0  0  0
    3.6739    2.8968   -0.2691 H   0  0  0  0  0  0
    4.1614    0.9586   -1.0686 C   0  0  2  0  0  0
    3.6877    0.1530   -1.6328 H   0  0  0  0  0  0
    4.7733    0.4307    0.2438 C   0  0  1  0  0  0
    5.4518    1.1756    0.6635 H   0  0  0  0  0  0
    3.6835    0.0853    1.2869 C   0  0  2  0  0  0
    3.1377   -0.8032    0.9623 H   0  0  0  0  0  0
    2.7709    1.1798    1.4197 O   0  0  0  0  0  0
    4.2922   -0.1799    2.6772 C   0  0  0  0  0  0
    3.3081   -0.7557    3.6094 N   0  3  0  0  0  0
    5.4956   -0.7498   -0.0487 O   0  0  0  0  0  0
    5.2136    1.5189   -1.8323 O   0  0  0  0  0  0
    2.4881    2.6039   -1.9695 N   0  0  0  0  0  0
   -0.3577    0.8351    2.0574 N   0  3  0  0  0  0
   -2.6133    0.6225    0.6172 H   0  0  0  0  0  0
   -2.4751   -0.7510    1.6890 H   0  0  0  0  0  0
   -4.3233   -0.6177   -0.6764 H   0  0  0  0  0  0
   -4.9213   -4.4905   -1.4415 H   0  0  0  0  0  0
   -5.8170   -4.5623   -2.9452 H   0  0  0  0  0  0
   -5.1350   -6.6053   -2.2915 H   0  0  0  0  0  0
   -4.8957   -2.9133   -5.3158 H   0  0  0  0  0  0
   -1.6117   -4.6482   -6.4540 H   0  0  0  0  0  0
    0.6841   -2.7576   -4.0053 H   0  0  0  0  0  0
    0.8387    0.7516   -2.7591 H   0  0  0  0  0  0
    5.1179   -0.8880    2.6028 H   0  0  0  0  0  0
    4.6999    0.7381    3.1019 H   0  0  0  0  0  0
    3.7550   -0.9314    4.4985 H   0  0  0  0  0  0
    6.1477   -0.5467   -0.7032 H   0  0  0  0  0  0
    5.6074    2.2228   -1.3397 H   0  0  0  0  0  0
    1.9212    3.4200   -1.7432 H   0  0  0  0  0  0
   -0.8233    1.7174    1.8965 H   0  0  0  0  0  0
    2.9579   -1.6262    3.2355 H   0  0  0  0  0  0
   -4.1916   -1.8813    0.3742 H   0  0  0  0  0  0
    0.6322    0.9979    2.1736 H   0  0  0  0  0  0
   -1.1526   -3.1127   -6.8424 H   0  0  0  0  0  0
    3.1847    2.9079   -2.6496 H   0  0  0  0  0  0
    2.5455   -0.1077    3.7414 H   0  0  0  0  0  0
   -0.7299    0.4117    2.8959 H   0  0  0  0  0  0
   -2.6944   -3.6175   -7.1495 H   0  0  0  0  0  0
   -4.0480   -2.1393   -1.2463 H   0  0  0  0  0  0
  1 10  1  0  0  0
  1  2  1  0  0  0
  1 49  1  0  0  0
  1 50  1  0  0  0
  2  3  1  0  0  0
  2  4  1  0  0  0
  2 48  1  0  0  0
  4  5  1  0  0  0
  4  6  1  0  0  0
  4 31  1  0  0  0
  6  7  1  0  0  0
  6  8  1  0  0  0
  6 30  1  0  0  0
  8  9  1  0  0  0
  8 10  1  0  0  0
  8 13  1  0  0  0
 10 11  1  0  0  0
 10 12  1  0  0  0
 12 51  1  0  0  0
 12 67  1  0  0  0
 12 74  1  0  0  0
 13 14  1  0  0  0
 14 15  1  0  0  0
 14 24  1  0  0  0
 14 16  1  0  0  0
 16 17  1  0  0  0
 16 18  1  0  0  0
 16 29  1  0  0  0
 18 19  1  0  0  0
 18 20  1  0  0  0
 18 28  1  0  0  0
 20 21  1  0  0  0
 20 22  1  0  0  0
 20 27  1  0  0  0
 22 23  1  0  0  0
 22 24  1  0  0  0
 22 25  1  0  0  0
 25 26  1  0  0  0
 25 52  1  0  0  0
 25 53  1  0  0  0
 26 54  1  0  0  0
 27 55  1  0  0  0
 28 56  1  0  0  0
 28 69  1  0  0  0
 28 73  1  0  0  0
 29 57  1  0  0  0
 30 58  1  0  0  0
 31 32  1  0  0  0
 32 33  1  0  0  0
 32 42  1  0  0  0
 32 34  1  0  0  0
 34 35  1  0  0  0
 34 36  1  0  0  0
 34 47  1  0  0  0
 36 37  1  0  0  0
 36 38  1  0  0  0
 36 46  1  0  0  0
 38 39  1  0  0  0
 38 40  1  0  0  0
 38 45  1  0  0  0
 40 41  1  0  0  0
 40 42  1  0  0  0
 40 43  1  0  0  0
 43 44  1  0  0  0
 43 59  1  0  0  0
 43 60  1  0  0  0
 44 61  1  0  0  0
 44 66  1  0  0  0
 44 71  1  0  0  0
 45 62  1  0  0  0
 46 63  1  0  0  0
 47 64  1  0  0  0
 47 70  1  0  0  0
 48 65  1  0  0  0
 48 68  1  0  0  0
 48 72  1  0  0  0
M  CHG  4  12   1  28   1  44   1  48   1
M  END
> <s_m_entry_id>
71

> <s_m_entry_name>
biosynth_p1.0.sdf.64

> <s_m_Source_Path>
/Users/Sebastito/Downloads

> <s_m_Source_File>
biosynth_p1.0.sdf.gz

> <i_m_Source_File_Index>
64

> <chiral flag>
1

> <version>
0

> <i_m_ct_enhanced_stereo_status>
0

> <s_m_source_file>
ligprep_vs.maegz

> <i_m_source_file_index>
64

> <i_lp_mmshare_version>
37011

> <r_epik_Ionization_Penalty>
0.755818

> <r_epik_Ionization_Penalty_Charging>
0.1868

> <r_epik_Ionization_Penalty_Neutral>
0.569019

> <r_epik_State_Penalty>
0.745482

> <r_epik_Charging_Adjusted_Penalty>
0.932282

> <i_epik_Tot_Q>
4

> <i_epik_Tot_abs_Q>
4

> <s_epik_Chemistry_Notes>
This compound contains an acetal/aminal-like group ( X-CH(R)-Y where X, Y are N, S, or O) that may be acid/base labile, releasing an aldehyde.

> <i_f3d_flags>
0

> <s_lp_Force_Field>
OPLS_2005

> <r_lp_Energy>
99.2651

> <b_lp_Chiralities_Consistent>
1

> <s_lp_Variant>
ZINC53132258-2

$$$$
ZINC53132258
                    3D
 Structure written by MMmdl.
 74 76  0  0  1  0            999 V2000
   -2.0939   -0.4672    0.6542 C   0  0  0  0  0  0
   -0.5795   -0.2465    0.7653 C   0  0  1  0  0  0
   -0.1171   -1.2230    0.9167 H   0  0  0  0  0  0
    0.0067    0.3653   -0.5292 C   0  0  2  0  0  0
   -0.3063    1.4095   -0.5919 H   0  0  0  0  0  0
   -0.4289   -0.4110   -1.8063 C   0  0  1  0  0  0
    0.2042   -1.2904   -1.9135 H   0  0  0  0  0  0
   -1.9349   -0.7965   -1.8393 C   0  0  2  0  0  0
   -2.5067    0.1179   -2.0108 H   0  0  0  0  0  0
   -2.4459   -1.3975   -0.5099 C   0  0  2  0  0  0
   -1.9822   -2.3658   -0.3218 H   0  0  0  0  0  0
   -3.9062   -1.5997   -0.5505 N   0  3  0  0  0  0
   -2.1961   -1.6440   -2.9649 O   0  0  0  0  0  0
   -1.7643   -2.9760   -2.9328 C   0  0  2  0  0  0
   -0.9276   -3.1155   -2.2490 H   0  0  0  0  0  0
   -1.3439   -3.3992   -4.3535 C   0  0  1  0  0  0
   -1.0410   -4.4466   -4.3036 H   0  0  0  0  0  0
   -2.5440   -3.2577   -5.3062 C   0  0  2  0  0  0
   -2.8329   -2.2081   -5.3841 H   0  0  0  0  0  0
   -3.7161   -4.0919   -4.7519 C   0  0  1  0  0  0
   -3.4873   -5.1548   -4.8459 H   0  0  0  0  0  0
   -3.9977   -3.7575   -3.2656 C   0  0  2  0  0  0
   -4.4095   -2.7484   -3.2000 H   0  0  0  0  0  0
   -2.7799   -3.8400   -2.5173 O   0  0  0  0  0  0
   -4.9799   -4.7525   -2.6199 C   0  0  0  0  0  0
   -5.5577   -4.1817   -1.4651 O   0  0  0  0  0  0
   -4.8711   -3.8013   -5.5158 O   0  0  0  0  0  0
   -2.1810   -3.7286   -6.6574 N   0  3  0  0  0  0
   -0.2165   -2.6682   -4.7934 O   0  0  0  0  0  0
   -0.2431    0.4448   -2.9181 O   0  0  0  0  0  0
    1.4193    0.2468   -0.3307 O   0  0  0  0  0  0
    2.2602    1.0203   -1.1379 C   0  0  2  0  0  0
    2.1251    0.7396   -2.1809 H   0  0  0  0  0  0
    3.7252    0.7466   -0.7326 C   0  0  1  0  0  0
    4.3642    1.3022   -1.4212 H   0  0  0  0  0  0
    3.9596    1.2413    0.7088 C   0  0  2  0  0  0
    3.3824    0.6397    1.4133 H   0  0  0  0  0  0
    3.5747    2.7278    0.8234 C   0  0  1  0  0  0
    4.2947    3.3397    0.2785 H   0  0  0  0  0  0
    2.1501    2.9573    0.2672 C   0  0  2  0  0  0
    1.4401    2.4534    0.9220 H   0  0  0  0  0  0
    2.0204    2.3965   -1.0397 O   0  0  0  0  0  0
    1.7208    4.4362    0.1981 C   0  0  0  0  0  0
    2.5886    5.2416   -0.6806 N   0  3  0  0  0  0
    3.5839    3.0950    2.1887 O   0  0  0  0  0  0
    5.3384    1.1120    1.0066 O   0  0  0  0  0  0
    4.0470   -0.6862   -0.8770 N   0  3  0  0  0  0
   -0.2870    0.5955    1.9366 N   0  0  0  0  0  0
   -2.6001    0.4924    0.5322 H   0  0  0  0  0  0
   -2.4677   -0.8957    1.5859 H   0  0  0  0  0  0
   -4.3709   -0.7184   -0.7169 H   0  0  0  0  0  0
   -5.7971   -4.9877   -3.3022 H   0  0  0  0  0  0
   -4.4882   -5.6942   -2.3728 H   0  0  0  0  0  0
   -6.1750   -4.8003   -1.1031 H   0  0  0  0  0  0
   -5.1004   -2.8926   -5.3903 H   0  0  0  0  0  0
   -1.9096   -4.7005   -6.6177 H   0  0  0  0  0  0
    0.5079   -2.8504   -4.2143 H   0  0  0  0  0  0
   -0.8136    1.1929   -2.8253 H   0  0  0  0  0  0
    0.6967    4.5067   -0.1696 H   0  0  0  0  0  0
    1.7268    4.8806    1.1938 H   0  0  0  0  0  0
    2.2520    6.1940   -0.7028 H   0  0  0  0  0  0
    4.4370    2.9025    2.5487 H   0  0  0  0  0  0
    5.8318    1.6880    0.4419 H   0  0  0  0  0  0
    3.4448   -1.2274   -0.2732 H   0  0  0  0  0  0
   -0.7506    1.4992    1.8534 H   0  0  0  0  0  0
    2.5719    4.8598   -1.6158 H   0  0  0  0  0  0
   -4.2195   -1.9810    0.3310 H   0  0  0  0  0  0
   -0.6464    0.1622    2.7868 H   0  0  0  0  0  0
   -1.4099   -3.1781   -7.0078 H   0  0  0  0  0  0
    5.0096   -0.8409   -0.6120 H   0  0  0  0  0  0
    3.5343    5.2311   -0.3264 H   0  0  0  0  0  0
   -4.1394   -2.2475   -1.2904 H   0  0  0  0  0  0
   -2.9759   -3.6274   -7.2725 H   0  0  0  0  0  0
    3.9117   -0.9723   -1.8359 H   0  0  0  0  0  0
  1 10  1  0  0  0
  1  2  1  0  0  0
  1 49  1  0  0  0
  1 50  1  0  0  0
  2  3  1  0  0  0
  2  4  1  0  0  0
  2 48  1  0  0  0
  4  5  1  0  0  0
  4  6  1  0  0  0
  4 31  1  0  0  0
  6  7  1  0  0  0
  6  8  1  0  0  0
  6 30  1  0  0  0
  8  9  1  0  0  0
  8 10  1  0  0  0
  8 13  1  0  0  0
 10 11  1  0  0  0
 10 12  1  0  0  0
 12 51  1  0  0  0
 12 67  1  0  0  0
 12 72  1  0  0  0
 13 14  1  0  0  0
 14 15  1  0  0  0
 14 24  1  0  0  0
 14 16  1  0  0  0
 16 17  1  0  0  0
 16 18  1  0  0  0
 16 29  1  0  0  0
 18 19  1  0  0  0
 18 20  1  0  0  0
 18 28  1  0  0  0
 20 21  1  0  0  0
 20 22  1  0  0  0
 20 27  1  0  0  0
 22 23  1  0  0  0
 22 24  1  0  0  0
 22 25  1  0  0  0
 25 26  1  0  0  0
 25 52  1  0  0  0
 25 53  1  0  0  0
 26 54  1  0  0  0
 27 55  1  0  0  0
 28 56  1  0  0  0
 28 69  1  0  0  0
 28 73  1  0  0  0
 29 57  1  0  0  0
 30 58  1  0  0  0
 31 32  1  0  0  0
 32 33  1  0  0  0
 32 42  1  0  0  0
 32 34  1  0  0  0
 34 35  1  0  0  0
 34 36  1  0  0  0
 34 47  1  0  0  0
 36 37  1  0  0  0
 36 38  1  0  0  0
 36 46  1  0  0  0
 38 39  1  0  0  0
 38 40  1  0  0  0
 38 45  1  0  0  0
 40 41  1  0  0  0
 40 42  1  0  0  0
 40 43  1  0  0  0
 43 44  1  0  0  0
 43 59  1  0  0  0
 43 60  1  0  0  0
 44 61  1  0  0  0
 44 66  1  0  0  0
 44 71  1  0  0  0
 45 62  1  0  0  0
 46 63  1  0  0  0
 47 64  1  0  0  0
 47 70  1  0  0  0
 47 74  1  0  0  0
 48 65  1  0  0  0
 48 68  1  0  0  0
M  CHG  4  12   1  28   1  44   1  47   1
M  END
> <s_m_entry_id>
71

> <s_m_entry_name>
biosynth_p1.0.sdf.64

> <s_m_Source_Path>
/Users/Sebastito/Downloads

> <s_m_Source_File>
biosynth_p1.0.sdf.gz

> <i_m_Source_File_Index>
64

> <chiral flag>
1

> <version>
0

> <i_m_ct_enhanced_stereo_status>
0

> <s_m_source_file>
ligprep_vs.maegz

> <i_m_source_file_index>
64

> <i_lp_mmshare_version>
37011

> <r_epik_Ionization_Penalty>
1.60614

> <r_epik_Ionization_Penalty_Charging>
0.322989

> <r_epik_Ionization_Penalty_Neutral>
1.28315

> <r_epik_State_Penalty>
1.74705

> <r_epik_Charging_Adjusted_Penalty>
2.07004

> <i_epik_Tot_Q>
4

> <i_epik_Tot_abs_Q>
4

> <s_epik_Chemistry_Notes>
This compound contains an acetal/aminal-like group ( X-CH(R)-Y where X, Y are N, S, or O) that may be acid/base labile, releasing an aldehyde.

> <i_f3d_flags>
0

> <s_lp_Force_Field>
OPLS_2005

> <r_lp_Energy>
84.7901

> <b_lp_Chiralities_Consistent>
1

> <s_lp_Variant>
ZINC53132258-3

$$$$
ZINC53132258
                    3D
 Structure written by MMmdl.
 74 76  0  0  1  0            999 V2000
   -2.0674   -0.5368    0.6781 C   0  0  0  0  0  0
   -0.5474   -0.3793    0.7705 C   0  0  1  0  0  0
   -0.1023   -1.3709    0.8684 H   0  0  0  0  0  0
    0.0265    0.3110   -0.4863 C   0  0  2  0  0  0
   -0.3092    1.3498   -0.4943 H   0  0  0  0  0  0
   -0.4212   -0.4102   -1.7901 C   0  0  1  0  0  0
    0.2104   -1.2849   -1.9384 H   0  0  0  0  0  0
   -1.9314   -0.7894   -1.8334 C   0  0  2  0  0  0
   -2.4976    0.1278   -2.0096 H   0  0  0  0  0  0
   -2.4770   -1.4010   -0.5196 C   0  0  2  0  0  0
   -2.0458   -2.3898   -0.3650 H   0  0  0  0  0  0
   -3.9422   -1.5187   -0.5516 N   0  0  0  0  0  0
   -2.1680   -1.6357   -2.9653 O   0  0  0  0  0  0
   -1.7599   -2.9749   -2.9173 C   0  0  2  0  0  0
   -0.9359   -3.1208   -2.2195 H   0  0  0  0  0  0
   -1.3260   -3.4124   -4.3288 C   0  0  1  0  0  0
   -1.0429   -4.4647   -4.2687 H   0  0  0  0  0  0
   -2.5107   -3.2536   -5.2983 C   0  0  2  0  0  0
   -2.7842   -2.2003   -5.3812 H   0  0  0  0  0  0
   -3.7018   -4.0707   -4.7598 C   0  0  1  0  0  0
   -3.4854   -5.1367   -4.8492 H   0  0  0  0  0  0
   -4.0003   -3.7297   -3.2784 C   0  0  2  0  0  0
   -4.4014   -2.7158   -3.2204 H   0  0  0  0  0  0
   -2.7936   -3.8233   -2.5133 O   0  0  0  0  0  0
   -5.0024   -4.7150   -2.6471 C   0  0  0  0  0  0
   -5.6223   -4.1262   -1.5246 O   0  0  0  0  0  0
   -4.8419   -3.7669   -5.5415 O   0  0  0  0  0  0
   -2.1359   -3.7314   -6.6435 N   0  3  0  0  0  0
   -0.1780   -2.7052   -4.7550 O   0  0  0  0  0  0
   -0.2439    0.4894   -2.8684 O   0  0  0  0  0  0
    1.4444    0.2250   -0.2974 O   0  0  0  0  0  0
    2.2658    0.9974   -1.1277 C   0  0  2  0  0  0
    2.1308    0.6929   -2.1642 H   0  0  0  0  0  0
    3.7396    0.7632   -0.7307 C   0  0  1  0  0  0
    4.3594    1.3360   -1.4228 H   0  0  0  0  0  0
    3.9628    1.2686    0.7082 C   0  0  2  0  0  0
    3.3975    0.6572    1.4143 H   0  0  0  0  0  0
    3.5472    2.7480    0.8169 C   0  0  1  0  0  0
    4.2650    3.3751    0.2861 H   0  0  0  0  0  0
    2.1256    2.9586    0.2429 C   0  0  2  0  0  0
    1.4123    2.4629    0.9020 H   0  0  0  0  0  0
    2.0016    2.3704   -1.0526 O   0  0  0  0  0  0
    1.6915    4.4350    0.1421 C   0  0  0  0  0  0
    2.5555    5.2269   -0.7533 N   0  3  0  0  0  0
    3.5253    3.1081    2.1839 O   0  0  0  0  0  0
    5.3420    1.1669    1.0115 O   0  0  0  0  0  0
    4.1049   -0.6594   -0.8786 N   0  3  0  0  0  0
   -0.2092    0.3740    1.9936 N   0  3  0  0  0  0
   -2.5382    0.4456    0.6079 H   0  0  0  0  0  0
   -2.4434   -0.9936    1.5952 H   0  0  0  0  0  0
   -4.3757   -0.6159   -0.7406 H   0  0  0  0  0  0
   -5.7958   -4.9663   -3.3513 H   0  0  0  0  0  0
   -4.5176   -5.6502   -2.3654 H   0  0  0  0  0  0
   -6.2428   -4.7421   -1.1648 H   0  0  0  0  0  0
   -5.0792   -2.8635   -5.3942 H   0  0  0  0  0  0
   -1.8740   -4.7055   -6.5974 H   0  0  0  0  0  0
    0.5314   -2.8957   -4.1605 H   0  0  0  0  0  0
   -0.8721    1.1912   -2.7852 H   0  0  0  0  0  0
    0.6672    4.4951   -0.2266 H   0  0  0  0  0  0
    1.6961    4.9002    1.1283 H   0  0  0  0  0  0
    2.2166    6.1782   -0.7912 H   0  0  0  0  0  0
    4.3895    2.9770    2.5458 H   0  0  0  0  0  0
    5.8287    1.7431    0.4411 H   0  0  0  0  0  0
    3.5303   -1.2232   -0.2689 H   0  0  0  0  0  0
   -0.6201    1.2958    1.9509 H   0  0  0  0  0  0
    2.5385    4.8310   -1.6824 H   0  0  0  0  0  0
   -4.2363   -2.1484   -1.2977 H   0  0  0  0  0  0
    0.7936    0.4523    2.0803 H   0  0  0  0  0  0
   -1.3557   -3.1880   -6.9848 H   0  0  0  0  0  0
    5.0758   -0.7828   -0.6273 H   0  0  0  0  0  0
    3.5025    5.2271   -0.4022 H   0  0  0  0  0  0
   -0.5757   -0.1151    2.7987 H   0  0  0  0  0  0
   -2.9227   -3.6243   -7.2679 H   0  0  0  0  0  0
    3.9682   -0.9502   -1.8363 H   0  0  0  0  0  0
  1 10  1  0  0  0
  1  2  1  0  0  0
  1 49  1  0  0  0
  1 50  1  0  0  0
  2  3  1  0  0  0
  2  4  1  0  0  0
  2 48  1  0  0  0
  4  5  1  0  0  0
  4  6  1  0  0  0
  4 31  1  0  0  0
  6  7  1  0  0  0
  6  8  1  0  0  0
  6 30  1  0  0  0
  8  9  1  0  0  0
  8 10  1  0  0  0
  8 13  1  0  0  0
 10 11  1  0  0  0
 10 12  1  0  0  0
 12 51  1  0  0  0
 12 67  1  0  0  0
 13 14  1  0  0  0
 14 15  1  0  0  0
 14 24  1  0  0  0
 14 16  1  0  0  0
 16 17  1  0  0  0
 16 18  1  0  0  0
 16 29  1  0  0  0
 18 19  1  0  0  0
 18 20  1  0  0  0
 18 28  1  0  0  0
 20 21  1  0  0  0
 20 22  1  0  0  0
 20 27  1  0  0  0
 22 23  1  0  0  0
 22 24  1  0  0  0
 22 25  1  0  0  0
 25 26  1  0  0  0
 25 52  1  0  0  0
 25 53  1  0  0  0
 26 54  1  0  0  0
 27 55  1  0  0  0
 28 56  1  0  0  0
 28 69  1  0  0  0
 28 73  1  0  0  0
 29 57  1  0  0  0
 30 58  1  0  0  0
 31 32  1  0  0  0
 32 33  1  0  0  0
 32 42  1  0  0  0
 32 34  1  0  0  0
 34 35  1  0  0  0
 34 36  1  0  0  0
 34 47  1  0  0  0
 36 37  1  0  0  0
 36 38  1  0  0  0
 36 46  1  0  0  0
 38 39  1  0  0  0
 38 40  1  0  0  0
 38 45  1  0  0  0
 40 41  1  0  0  0
 40 42  1  0  0  0
 40 43  1  0  0  0
 43 44  1  0  0  0
 43 59  1  0  0  0
 43 60  1  0  0  0
 44 61  1  0  0  0
 44 66  1  0  0  0
 44 71  1  0  0  0
 45 62  1  0  0  0
 46 63  1  0  0  0
 47 64  1  0  0  0
 47 70  1  0  0  0
 47 74  1  0  0  0
 48 65  1  0  0  0
 48 68  1  0  0  0
 48 72  1  0  0  0
M  CHG  4  28   1  44   1  47   1  48   1
M  END
> <s_m_entry_id>
71

> <s_m_entry_name>
biosynth_p1.0.sdf.64

> <s_m_Source_Path>
/Users/Sebastito/Downloads

> <s_m_Source_File>
biosynth_p1.0.sdf.gz

> <i_m_Source_File_Index>
64

> <chiral flag>
1

> <version>
0

> <i_m_ct_enhanced_stereo_status>
0

> <s_m_source_file>
ligprep_vs.maegz

> <i_m_source_file_index>
64

> <i_lp_mmshare_version>
37011

> <r_epik_Ionization_Penalty>
1.65895

> <r_epik_Ionization_Penalty_Charging>
0.345619

> <r_epik_Ionization_Penalty_Neutral>
1.31333

> <r_epik_State_Penalty>
1.78329

> <r_epik_Charging_Adjusted_Penalty>
2.12891

> <i_epik_Tot_Q>
4

> <i_epik_Tot_abs_Q>
4

> <s_epik_Chemistry_Notes>
This compound contains an acetal/aminal-like group ( X-CH(R)-Y where X, Y are N, S, or O) that may be acid/base labile, releasing an aldehyde.

> <i_f3d_flags>
0

> <s_lp_Force_Field>
OPLS_2005

> <r_lp_Energy>
90.1377

> <b_lp_Chiralities_Consistent>
1

> <s_lp_Variant>
ZINC53132258-4

$$$$
ZINC53132258
                    3D
 Structure written by MMmdl.
 74 76  0  0  1  0            999 V2000
   -1.8615   -0.7543    0.8089 C   0  0  0  0  0  0
   -0.3581   -0.4320    0.8374 C   0  0  1  0  0  0
    0.2006   -1.3678    0.8865 H   0  0  0  0  0  0
    0.0705    0.3452   -0.4298 C   0  0  2  0  0  0
   -0.3729    1.3432   -0.4105 H   0  0  0  0  0  0
   -0.3713   -0.3697   -1.7301 C   0  0  1  0  0  0
    0.2875   -1.2189   -1.9072 H   0  0  0  0  0  0
   -1.8606   -0.8075   -1.7261 C   0  0  2  0  0  0
   -2.4699    0.0971   -1.7715 H   0  0  0  0  0  0
   -2.2588   -1.5633   -0.4342 C   0  0  2  0  0  0
   -1.7474   -2.5246   -0.3858 H   0  0  0  0  0  0
   -3.7108   -1.8268   -0.4070 N   0  3  0  0  0  0
   -2.1583   -1.5477   -2.9163 O   0  0  0  0  0  0
   -1.6819   -2.8593   -3.0510 C   0  0  2  0  0  0
   -0.7614   -3.0135   -2.4898 H   0  0  0  0  0  0
   -1.4257   -3.1461   -4.5426 C   0  0  1  0  0  0
   -1.0694   -4.1750   -4.6182 H   0  0  0  0  0  0
   -2.7327   -2.9946   -5.3475 C   0  0  2  0  0  0
   -3.0487   -1.9507   -5.3172 H   0  0  0  0  0  0
   -3.8247   -3.8822   -4.7099 C   0  0  1  0  0  0
   -3.6356   -4.9301   -4.9484 H   0  0  0  0  0  0
   -3.9011   -3.7058   -3.1728 C   0  0  2  0  0  0
   -4.3047   -2.7189   -2.9403 H   0  0  0  0  0  0
   -2.6006   -3.8013   -2.5895 O   0  0  0  0  0  0
   -4.7718   -4.7653   -2.4715 C   0  0  0  0  0  0
   -6.1399   -4.4286   -2.5545 O   0  0  0  0  0  0
   -5.0682   -3.4899   -5.2574 O   0  0  0  0  0  0
   -2.5108   -3.4050   -6.7464 N   0  0  0  0  0  0
   -0.3975   -2.3104   -5.0372 O   0  0  0  0  0  0
   -0.2148    0.5700   -2.7771 O   0  0  0  0  0  0
    1.4974    0.3652   -0.5139 O   0  0  0  0  0  0
    2.1464    1.5277   -0.0863 C   0  0  2  0  0  0
    1.4825    2.3913   -0.1480 H   0  0  0  0  0  0
    3.3717    1.7771   -0.9895 C   0  0  1  0  0  0
    3.8440    2.7016   -0.6525 H   0  0  0  0  0  0
    4.3564    0.6047   -0.8363 C   0  0  2  0  0  0
    3.9257   -0.3114   -1.2443 H   0  0  0  0  0  0
    4.7268    0.4213    0.6476 C   0  0  1  0  0  0
    5.3593    1.2471    0.9780 H   0  0  0  0  0  0
    3.4616    0.3511    1.5423 C   0  0  2  0  0  0
    2.9239   -0.5818    1.3626 H   0  0  0  0  0  0
    2.5848    1.4403    1.2379 O   0  0  0  0  0  0
    3.7710    0.4781    3.0493 C   0  0  0  0  0  0
    4.4501   -0.7094    3.6009 N   0  3  0  0  0  0
    5.4430   -0.7939    0.7652 O   0  0  0  0  0  0
    5.5329    0.9265   -1.5533 O   0  0  0  0  0  0
    2.9623    1.9731   -2.3944 N   0  3  0  0  0  0
   -0.0585    0.3342    2.0622 N   0  3  0  0  0  0
   -2.4354    0.1741    0.8402 H   0  0  0  0  0  0
   -2.1325   -1.3124    1.7068 H   0  0  0  0  0  0
   -4.2208   -0.9552   -0.4320 H   0  0  0  0  0  0
   -4.6013   -5.7608   -2.8825 H   0  0  0  0  0  0
   -4.5199   -4.8120   -1.4116 H   0  0  0  0  0  0
   -6.3865   -4.3997   -3.4673 H   0  0  0  0  0  0
   -5.0152   -3.5678   -6.1985 H   0  0  0  0  0  0
   -1.7705   -2.8419   -7.1634 H   0  0  0  0  0  0
    0.4132   -2.5453   -4.6129 H   0  0  0  0  0  0
   -0.8786    1.2380   -2.6917 H   0  0  0  0  0  0
    4.3811    1.3614    3.2424 H   0  0  0  0  0  0
    2.8432    0.6098    3.6067 H   0  0  0  0  0  0
    4.6260   -0.5705    4.5861 H   0  0  0  0  0  0
    4.9371   -1.4882    0.3703 H   0  0  0  0  0  0
    6.1634    0.2317   -1.4303 H   0  0  0  0  0  0
    2.4838    1.1495   -2.7299 H   0  0  0  0  0  0
   -0.5848    1.1969    2.0634 H   0  0  0  0  0  0
    5.3306   -0.8460    3.1233 H   0  0  0  0  0  0
   -3.9537   -2.3325    0.4331 H   0  0  0  0  0  0
    0.9282    0.5469    2.0995 H   0  0  0  0  0  0
   -2.1976   -4.3738   -6.7878 H   0  0  0  0  0  0
    3.7850    2.1330   -2.9591 H   0  0  0  0  0  0
    3.8723   -1.5284    3.4777 H   0  0  0  0  0  0
   -0.3146   -0.2105    2.8739 H   0  0  0  0  0  0
   -3.9663   -2.3821   -1.2121 H   0  0  0  0  0  0
    2.3491    2.7723   -2.4661 H   0  0  0  0  0  0
  1 10  1  0  0  0
  1  2  1  0  0  0
  1 49  1  0  0  0
  1 50  1  0  0  0
  2  3  1  0  0  0
  2  4  1  0  0  0
  2 48  1  0  0  0
  4  5  1  0  0  0
  4  6  1  0  0  0
  4 31  1  0  0  0
  6  7  1  0  0  0
  6  8  1  0  0  0
  6 30  1  0  0  0
  8  9  1  0  0  0
  8 10  1  0  0  0
  8 13  1  0  0  0
 10 11  1  0  0  0
 10 12  1  0  0  0
 12 51  1  0  0  0
 12 67  1  0  0  0
 12 73  1  0  0  0
 13 14  1  0  0  0
 14 15  1  0  0  0
 14 24  1  0  0  0
 14 16  1  0  0  0
 16 17  1  0  0  0
 16 18  1  0  0  0
 16 29  1  0  0  0
 18 19  1  0  0  0
 18 20  1  0  0  0
 18 28  1  0  0  0
 20 21  1  0  0  0
 20 22  1  0  0  0
 20 27  1  0  0  0
 22 23  1  0  0  0
 22 24  1  0  0  0
 22 25  1  0  0  0
 25 26  1  0  0  0
 25 52  1  0  0  0
 25 53  1  0  0  0
 26 54  1  0  0  0
 27 55  1  0  0  0
 28 56  1  0  0  0
 28 69  1  0  0  0
 29 57  1  0  0  0
 30 58  1  0  0  0
 31 32  1  0  0  0
 32 33  1  0  0  0
 32 42  1  0  0  0
 32 34  1  0  0  0
 34 35  1  0  0  0
 34 36  1  0  0  0
 34 47  1  0  0  0
 36 37  1  0  0  0
 36 38  1  0  0  0
 36 46  1  0  0  0
 38 39  1  0  0  0
 38 40  1  0  0  0
 38 45  1  0  0  0
 40 41  1  0  0  0
 40 42  1  0  0  0
 40 43  1  0  0  0
 43 44  1  0  0  0
 43 59  1  0  0  0
 43 60  1  0  0  0
 44 61  1  0  0  0
 44 66  1  0  0  0
 44 71  1  0  0  0
 45 62  1  0  0  0
 46 63  1  0  0  0
 47 64  1  0  0  0
 47 70  1  0  0  0
 47 74  1  0  0  0
 48 65  1  0  0  0
 48 68  1  0  0  0
 48 72  1  0  0  0
M  CHG  4  12   1  44   1  47   1  48   1
M  END
> <s_m_entry_id>
71

> <s_m_entry_name>
biosynth_p1.0.sdf.64

> <s_m_Source_Path>
/Users/Sebastito/Downloads

> <s_m_Source_File>
biosynth_p1.0.sdf.gz

> <i_m_Source_File_Index>
64

> <chiral flag>
1

> <version>
0

> <i_m_ct_enhanced_stereo_status>
0

> <s_m_source_file>
ligprep_vs.maegz

> <i_m_source_file_index>
64

> <i_lp_mmshare_version>
37011

> <r_epik_Ionization_Penalty>
1.81326

> <r_epik_Ionization_Penalty_Charging>
0.425766

> <r_epik_Ionization_Penalty_Neutral>
1.3875

> <r_epik_State_Penalty>
1.85581

> <r_epik_Charging_Adjusted_Penalty>
2.28157

> <i_epik_Tot_Q>
4

> <i_epik_Tot_abs_Q>
4

> <s_epik_Chemistry_Notes>
This compound contains an acetal/aminal-like group ( X-CH(R)-Y where X, Y are N, S, or O) that may be acid/base labile, releasing an aldehyde.

> <i_f3d_flags>
0

> <s_lp_Force_Field>
OPLS_2005

> <r_lp_Energy>
110.773

> <b_lp_Chiralities_Consistent>
1

> <s_lp_Variant>
ZINC53132258-5

$$$$
ZINC53132258
                    3D
 Structure written by MMmdl.
 73 75  0  0  1  0            999 V2000
   -1.7724   -0.7561    0.8707 C   0  0  0  0  0  0
   -0.2691   -0.4556    0.8321 C   0  0  1  0  0  0
    0.2785   -1.3987    0.8015 H   0  0  0  0  0  0
    0.0948    0.3843   -0.4099 C   0  0  2  0  0  0
   -0.3310    1.3846   -0.3053 H   0  0  0  0  0  0
   -0.4208   -0.2590   -1.7189 C   0  0  1  0  0  0
    0.2487   -1.0737   -1.9908 H   0  0  0  0  0  0
   -1.8956   -0.7440   -1.6589 C   0  0  2  0  0  0
   -2.5371    0.1391   -1.6842 H   0  0  0  0  0  0
   -2.2449   -1.5271   -0.3687 C   0  0  2  0  0  0
   -1.7246   -2.4845   -0.3655 H   0  0  0  0  0  0
   -3.6918   -1.7700   -0.2686 N   0  0  0  0  0  0
   -2.1868   -1.4993   -2.8408 O   0  0  0  0  0  0
   -1.6570   -2.7894   -2.9775 C   0  0  2  0  0  0
   -0.7644   -2.9319   -2.3697 H   0  0  0  0  0  0
   -1.3147   -3.0297   -4.4595 C   0  0  1  0  0  0
   -0.9312   -4.0480   -4.5422 H   0  0  0  0  0  0
   -2.5934   -2.8904   -5.3035 C   0  0  2  0  0  0
   -2.9709   -1.8685   -5.2394 H   0  0  0  0  0  0
   -3.6484   -3.8794   -4.7687 C   0  0  1  0  0  0
   -3.3402   -4.9026   -4.9901 H   0  0  0  0  0  0
   -3.8436   -3.7218   -3.2394 C   0  0  2  0  0  0
   -4.3283   -2.7646   -3.0367 H   0  0  0  0  0  0
   -2.5693   -3.7737   -2.5895 O   0  0  0  0  0  0
   -4.6883   -4.8626   -2.6408 C   0  0  0  0  0  0
   -5.2390   -4.4632   -1.4044 O   0  0  0  0  0  0
   -4.8752   -3.6158   -5.4239 O   0  0  0  0  0  0
   -2.3021   -3.1743   -6.7218 N   0  3  0  0  0  0
   -0.2824   -2.1671   -4.8957 O   0  0  0  0  0  0
   -0.3592    0.7400   -2.7191 O   0  0  0  0  0  0
    1.5153    0.3779   -0.5475 O   0  0  0  0  0  0
    2.1886    1.5700   -0.2660 C   0  0  2  0  0  0
    1.5424    2.4338   -0.4308 H   0  0  0  0  0  0
    3.4111    1.6743   -1.2033 C   0  0  1  0  0  0
    3.9265    2.5999   -0.9416 H   0  0  0  0  0  0
    4.3597    0.4901   -0.9328 C   0  0  2  0  0  0
    3.9025   -0.4504   -1.2459 H   0  0  0  0  0  0
    4.7372    0.4532    0.5604 C   0  0  1  0  0  0
    5.4118    1.2801    0.7871 H   0  0  0  0  0  0
    3.4770    0.5374    1.4544 C   0  0  2  0  0  0
    2.9082   -0.3867    1.3371 H   0  0  0  0  0  0
    2.6363    1.6244    1.0580 O   0  0  0  0  0  0
    3.7788    0.6872    2.9590 C   0  0  0  0  0  0
    4.5492    1.9063    3.2669 N   0  3  0  0  0  0
    5.3901   -0.7716    0.8297 O   0  0  0  0  0  0
    5.5514    0.7073   -1.6657 O   0  0  0  0  0  0
    2.9844    1.7594   -2.6101 N   0  0  0  0  0  0
    0.1089    0.2453    2.0720 N   0  3  0  0  0  0
   -2.3314    0.1775    0.9584 H   0  0  0  0  0  0
   -2.0050   -1.3368    1.7649 H   0  0  0  0  0  0
   -4.2084   -0.8924   -0.3069 H   0  0  0  0  0  0
   -5.5242   -5.1109   -3.2950 H   0  0  0  0  0  0
   -4.0984   -5.7716   -2.5171 H   0  0  0  0  0  0
   -5.7499   -5.1784   -1.0559 H   0  0  0  0  0  0
   -5.5291   -4.2160   -5.0976 H   0  0  0  0  0  0
   -1.9448   -4.1141   -6.8137 H   0  0  0  0  0  0
    0.4769   -2.3008   -4.3485 H   0  0  0  0  0  0
   -0.9786    1.4218   -2.5079 H   0  0  0  0  0  0
    2.8473    0.7131    3.5252 H   0  0  0  0  0  0
    4.3398   -0.1751    3.3203 H   0  0  0  0  0  0
    4.7080    1.9620    4.2632 H   0  0  0  0  0  0
    6.1165   -0.8618    0.2303 H   0  0  0  0  0  0
    5.9097    1.5481   -1.4254 H   0  0  0  0  0  0
    2.4211    2.5937   -2.7683 H   0  0  0  0  0  0
   -0.4081    1.1103    2.1415 H   0  0  0  0  0  0
    4.0351    2.7211    2.9635 H   0  0  0  0  0  0
   -4.0152   -2.3347   -1.0537 H   0  0  0  0  0  0
    1.0985    0.4442    2.0572 H   0  0  0  0  0  0
   -1.6124   -2.5166   -7.0572 H   0  0  0  0  0  0
    3.7943    1.8227   -3.2260 H   0  0  0  0  0  0
    5.4395    1.8734    2.7904 H   0  0  0  0  0  0
   -0.1078   -0.3385    2.8677 H   0  0  0  0  0  0
   -3.1511   -3.0799   -7.2607 H   0  0  0  0  0  0
  1 10  1  0  0  0
  1  2  1  0  0  0
  1 49  1  0  0  0
  1 50  1  0  0  0
  2  3  1  0  0  0
  2  4  1  0  0  0
  2 48  1  0  0  0
  4  5  1  0  0  0
  4  6  1  0  0  0
  4 31  1  0  0  0
  6  7  1  0  0  0
  6  8  1  0  0  0
  6 30  1  0  0  0
  8  9  1  0  0  0
  8 10  1  0  0  0
  8 13  1  0  0  0
 10 11  1  0  0  0
 10 12  1  0  0  0
 12 51  1  0  0  0
 12 67  1  0  0  0
 13 14  1  0  0  0
 14 15  1  0  0  0
 14 24  1  0  0  0
 14 16  1  0  0  0
 16 17  1  0  0  0
 16 18  1  0  0  0
 16 29  1  0  0  0
 18 19  1  0  0  0
 18 20  1  0  0  0
 18 28  1  0  0  0
 20 21  1  0  0  0
 20 22  1  0  0  0
 20 27  1  0  0  0
 22 23  1  0  0  0
 22 24  1  0  0  0
 22 25  1  0  0  0
 25 26  1  0  0  0
 25 52  1  0  0  0
 25 53  1  0  0  0
 26 54  1  0  0  0
 27 55  1  0  0  0
 28 56  1  0  0  0
 28 69  1  0  0  0
 28 73  1  0  0  0
 29 57  1  0  0  0
 30 58  1  0  0  0
 31 32  1  0  0  0
 32 33  1  0  0  0
 32 42  1  0  0  0
 32 34  1  0  0  0
 34 35  1  0  0  0
 34 36  1  0  0  0
 34 47  1  0  0  0
 36 37  1  0  0  0
 36 38  1  0  0  0
 36 46  1  0  0  0
 38 39  1  0  0  0
 38 40  1  0  0  0
 38 45  1  0  0  0
 40 41  1  0  0  0
 40 42  1  0  0  0
 40 43  1  0  0  0
 43 44  1  0  0  0
 43 59  1  0  0  0
 43 60  1  0  0  0
 44 61  1  0  0  0
 44 66  1  0  0  0
 44 71  1  0  0  0
 45 62  1  0  0  0
 46 63  1  0  0  0
 47 64  1  0  0  0
 47 70  1  0  0  0
 48 65  1  0  0  0
 48 68  1  0  0  0
 48 72  1  0  0  0
M  CHG  3  28   1  44   1  48   1
M  END
> <s_m_entry_id>
71

> <s_m_entry_name>
biosynth_p1.0.sdf.64

> <s_m_Source_Path>
/Users/Sebastito/Downloads

> <s_m_Source_File>
biosynth_p1.0.sdf.gz

> <i_m_Source_File_Index>
64

> <chiral flag>
1

> <version>
0

> <i_m_ct_enhanced_stereo_status>
0

> <s_m_source_file>
ligprep_vs.maegz

> <i_m_source_file_index>
64

> <i_lp_mmshare_version>
37011

> <r_epik_Ionization_Penalty>
2.01621

> <r_epik_Ionization_Penalty_Charging>
0.0704502

> <r_epik_Ionization_Penalty_Neutral>
1.94576

> <r_epik_State_Penalty>
2.12687

> <r_epik_Charging_Adjusted_Penalty>
2.19732

> <i_epik_Tot_Q>
3

> <i_epik_Tot_abs_Q>
3

> <s_epik_Chemistry_Notes>
This compound contains an acetal/aminal-like group ( X-CH(R)-Y where X, Y are N, S, or O) that may be acid/base labile, releasing an aldehyde.

> <i_f3d_flags>
0

> <s_lp_Force_Field>
OPLS_2005

> <r_lp_Energy>
83.5724

> <b_lp_Chiralities_Consistent>
1

> <s_lp_Variant>
ZINC53132258-6

$$$$
ZINC53132258
                    3D
 Structure written by MMmdl.
 73 75  0  0  1  0            999 V2000
   -2.0822   -0.5273    0.7445 C   0  0  0  0  0  0
   -0.5688   -0.2981    0.8380 C   0  0  1  0  0  0
   -0.0873   -1.2690    0.9694 H   0  0  0  0  0  0
    0.0009    0.3709   -0.4347 C   0  0  2  0  0  0
   -0.3246    1.4127   -0.4603 H   0  0  0  0  0  0
   -0.4370   -0.3632   -1.7377 C   0  0  1  0  0  0
    0.2209   -1.2164   -1.8975 H   0  0  0  0  0  0
   -1.9335   -0.7903   -1.7624 C   0  0  2  0  0  0
   -2.5324    0.1116   -1.9053 H   0  0  0  0  0  0
   -2.4203   -1.4355   -0.4434 C   0  0  2  0  0  0
   -1.9302   -2.3960   -0.2833 H   0  0  0  0  0  0
   -3.8734   -1.6837   -0.4852 N   0  3  0  0  0  0
   -2.1858   -1.6166   -2.9047 O   0  0  0  0  0  0
   -1.7178   -2.9373   -2.9015 C   0  0  2  0  0  0
   -0.8719   -3.0651   -2.2267 H   0  0  0  0  0  0
   -1.2887   -3.3206   -4.3286 C   0  0  1  0  0  0
   -0.9371   -4.3532   -4.2923 H   0  0  0  0  0  0
   -2.4886   -3.2146   -5.2914 C   0  0  2  0  0  0
   -2.7934   -2.1697   -5.3649 H   0  0  0  0  0  0
   -3.6588   -4.0517   -4.7282 C   0  0  1  0  0  0
   -3.4569   -5.1154   -4.8669 H   0  0  0  0  0  0
   -3.9246   -3.7678   -3.2291 C   0  0  2  0  0  0
   -4.3597   -2.7711   -3.1314 H   0  0  0  0  0  0
   -2.7016   -3.8370   -2.4931 O   0  0  0  0  0  0
   -4.8751   -4.8037   -2.5991 C   0  0  0  0  0  0
   -5.5350   -4.2450   -1.4825 O   0  0  0  0  0  0
   -4.8277   -3.6928   -5.4398 O   0  0  0  0  0  0
   -2.1103   -3.7152   -6.6263 N   0  0  0  0  0  0
   -0.1978   -2.5232   -4.7444 O   0  0  0  0  0  0
   -0.3025    0.5492   -2.8127 O   0  0  0  0  0  0
    1.4120    0.2812   -0.2234 O   0  0  0  0  0  0
    2.2670    0.9362   -1.1155 C   0  0  2  0  0  0
    2.1107    0.5673   -2.1283 H   0  0  0  0  0  0
    3.7213    0.6392   -0.6996 C   0  0  1  0  0  0
    4.3621    1.1744   -1.4021 H   0  0  0  0  0  0
    3.9572    1.2017    0.7146 C   0  0  2  0  0  0
    3.3758    0.6461    1.4525 H   0  0  0  0  0  0
    3.6066    2.7019    0.7474 C   0  0  1  0  0  0
    4.3653    3.2716    0.2076 H   0  0  0  0  0  0
    2.2174    2.9840    0.1275 C   0  0  2  0  0  0
    1.4384    2.6222    0.8003 H   0  0  0  0  0  0
    2.0915    2.3232   -1.1327 O   0  0  0  0  0  0
    2.0062    4.4874   -0.1313 C   0  0  0  0  0  0
    0.6405    4.7810   -0.5992 N   0  3  0  0  0  0
    3.5751    3.1190    2.0987 O   0  0  0  0  0  0
    5.3363    1.0816    1.0106 O   0  0  0  0  0  0
    4.0116   -0.8006   -0.8048 N   0  0  0  0  0  0
   -0.2555    0.5011    2.0391 N   0  3  0  0  0  0
   -2.6010    0.4284    0.6494 H   0  0  0  0  0  0
   -2.4415   -0.9853    1.6676 H   0  0  0  0  0  0
   -4.3701   -0.8159   -0.6272 H   0  0  0  0  0  0
   -5.6476   -5.1066   -3.3065 H   0  0  0  0  0  0
   -4.3382   -5.7076   -2.3090 H   0  0  0  0  0  0
   -6.1645   -3.6127   -1.7948 H   0  0  0  0  0  0
   -4.6922   -3.8838   -6.3555 H   0  0  0  0  0  0
   -1.8001   -4.6845   -6.5717 H   0  0  0  0  0  0
   -0.5038   -1.6385   -4.8728 H   0  0  0  0  0  0
   -0.9331    1.2450   -2.7073 H   0  0  0  0  0  0
    2.1751    5.0588    0.7817 H   0  0  0  0  0  0
    2.7197    4.8515   -0.8714 H   0  0  0  0  0  0
    0.5502    5.7744   -0.7605 H   0  0  0  0  0  0
    4.4219    2.9471    2.4838 H   0  0  0  0  0  0
    5.8316    1.5333    0.3440 H   0  0  0  0  0  0
    4.9780   -0.9856   -0.5376 H   0  0  0  0  0  0
   -0.6944    1.4081    1.9747 H   0  0  0  0  0  0
   -0.0300    4.4942    0.0990 H   0  0  0  0  0  0
   -4.1729   -2.1059    0.3824 H   0  0  0  0  0  0
    0.7456    0.6157    2.1156 H   0  0  0  0  0  0
   -2.9101   -3.6949   -7.2570 H   0  0  0  0  0  0
    3.4274   -1.3302   -0.1598 H   0  0  0  0  0  0
    0.4681    4.2866   -1.4630 H   0  0  0  0  0  0
   -0.5963    0.0230    2.8617 H   0  0  0  0  0  0
   -4.0811   -2.3164   -1.2460 H   0  0  0  0  0  0
  1 10  1  0  0  0
  1  2  1  0  0  0
  1 49  1  0  0  0
  1 50  1  0  0  0
  2  3  1  0  0  0
  2  4  1  0  0  0
  2 48  1  0  0  0
  4  5  1  0  0  0
  4  6  1  0  0  0
  4 31  1  0  0  0
  6  7  1  0  0  0
  6  8  1  0  0  0
  6 30  1  0  0  0
  8  9  1  0  0  0
  8 10  1  0  0  0
  8 13  1  0  0  0
 10 11  1  0  0  0
 10 12  1  0  0  0
 12 51  1  0  0  0
 12 67  1  0  0  0
 12 73  1  0  0  0
 13 14  1  0  0  0
 14 15  1  0  0  0
 14 24  1  0  0  0
 14 16  1  0  0  0
 16 17  1  0  0  0
 16 18  1  0  0  0
 16 29  1  0  0  0
 18 19  1  0  0  0
 18 20  1  0  0  0
 18 28  1  0  0  0
 20 21  1  0  0  0
 20 22  1  0  0  0
 20 27  1  0  0  0
 22 23  1  0  0  0
 22 24  1  0  0  0
 22 25  1  0  0  0
 25 26  1  0  0  0
 25 52  1  0  0  0
 25 53  1  0  0  0
 26 54  1  0  0  0
 27 55  1  0  0  0
 28 56  1  0  0  0
 28 69  1  0  0  0
 29 57  1  0  0  0
 30 58  1  0  0  0
 31 32  1  0  0  0
 32 33  1  0  0  0
 32 42  1  0  0  0
 32 34  1  0  0  0
 34 35  1  0  0  0
 34 36  1  0  0  0
 34 47  1  0  0  0
 36 37  1  0  0  0
 36 38  1  0  0  0
 36 46  1  0  0  0
 38 39  1  0  0  0
 38 40  1  0  0  0
 38 45  1  0  0  0
 40 41  1  0  0  0
 40 42  1  0  0  0
 40 43  1  0  0  0
 43 44  1  0  0  0
 43 59  1  0  0  0
 43 60  1  0  0  0
 44 61  1  0  0  0
 44 66  1  0  0  0
 44 71  1  0  0  0
 45 62  1  0  0  0
 46 63  1  0  0  0
 47 64  1  0  0  0
 47 70  1  0  0  0
 48 65  1  0  0  0
 48 68  1  0  0  0
 48 72  1  0  0  0
M  CHG  3  12   1  44   1  48   1
M  END
> <s_m_entry_id>
71

> <s_m_entry_name>
biosynth_p1.0.sdf.64

> <s_m_Source_Path>
/Users/Sebastito/Downloads

> <s_m_Source_File>
biosynth_p1.0.sdf.gz

> <i_m_Source_File_Index>
64

> <chiral flag>
1

> <version>
0

> <i_m_ct_enhanced_stereo_status>
0

> <s_m_source_file>
ligprep_vs.maegz

> <i_m_source_file_index>
64

> <i_lp_mmshare_version>
37011

> <r_epik_Ionization_Penalty>
2.07652

> <r_epik_Ionization_Penalty_Charging>
0.120439

> <r_epik_Ionization_Penalty_Neutral>
1.95609

> <r_epik_State_Penalty>
2.15066

> <r_epik_Charging_Adjusted_Penalty>
2.2711

> <i_epik_Tot_Q>
3

> <i_epik_Tot_abs_Q>
3

> <s_epik_Chemistry_Notes>
This compound contains an acetal/aminal-like group ( X-CH(R)-Y where X, Y are N, S, or O) that may be acid/base labile, releasing an aldehyde.

> <i_f3d_flags>
0

> <s_lp_Force_Field>
OPLS_2005

> <r_lp_Energy>
104.517

> <b_lp_Chiralities_Consistent>
1

> <s_lp_Variant>
ZINC53132258-7

$$$$
ZINC53132258
                    3D
 Structure written by MMmdl.
 73 75  0  0  1  0            999 V2000
   -2.2162   -0.4743    0.5670 C   0  0  0  0  0  0
   -0.7132   -0.2328    0.7477 C   0  0  1  0  0  0
   -0.2429   -1.2060    0.8969 H   0  0  0  0  0  0
   -0.0817    0.4159   -0.5062 C   0  0  2  0  0  0
   -0.3960    1.4604   -0.5563 H   0  0  0  0  0  0
   -0.4530   -0.3312   -1.8212 C   0  0  1  0  0  0
    0.2174   -1.1812   -1.9376 H   0  0  0  0  0  0
   -1.9416   -0.7701   -1.9202 C   0  0  2  0  0  0
   -2.5376    0.1245   -2.1122 H   0  0  0  0  0  0
   -2.4953   -1.3977   -0.6211 C   0  0  2  0  0  0
   -2.0176   -2.3572   -0.4236 H   0  0  0  0  0  0
   -3.9479   -1.6298   -0.7294 N   0  3  0  0  0  0
   -2.1233   -1.6213   -3.0588 O   0  0  0  0  0  0
   -1.6404   -2.9360   -3.0134 C   0  0  2  0  0  0
   -0.8051   -3.0384   -2.3215 H   0  0  0  0  0  0
   -1.1925   -3.3528   -4.4274 C   0  0  1  0  0  0
   -0.8529   -4.3882   -4.3674 H   0  0  0  0  0  0
   -2.3891   -3.2583   -5.3909 C   0  0  2  0  0  0
   -2.7177   -2.2207   -5.4700 H   0  0  0  0  0  0
   -3.5353   -4.1368   -4.8497 C   0  0  1  0  0  0
   -3.2720   -5.1909   -4.9515 H   0  0  0  0  0  0
   -3.8333   -3.8200   -3.3612 C   0  0  2  0  0  0
   -4.2761   -2.8261   -3.2765 H   0  0  0  0  0  0
   -2.6231   -3.8378   -2.5987 O   0  0  0  0  0  0
   -4.7743   -4.8397   -2.6915 C   0  0  0  0  0  0
   -6.1154   -4.6156   -3.0703 O   0  0  0  0  0  0
   -4.6890   -3.8715   -5.6234 O   0  0  0  0  0  0
   -1.9971   -3.7100   -6.7403 N   0  3  0  0  0  0
   -0.0878   -2.5851   -4.8620 O   0  0  0  0  0  0
   -0.2658    0.5663   -2.8998 O   0  0  0  0  0  0
    1.3194    0.2993   -0.2494 O   0  0  0  0  0  0
    2.1913    1.0703   -1.0248 C   0  0  2  0  0  0
    2.0660    0.8367   -2.0803 H   0  0  0  0  0  0
    3.6386    0.7400   -0.6114 C   0  0  1  0  0  0
    4.2873    1.3633   -1.2291 H   0  0  0  0  0  0
    3.8384    1.1338    0.8641 C   0  0  2  0  0  0
    3.2555    0.4826    1.5182 H   0  0  0  0  0  0
    3.4580    2.6144    1.0737 C   0  0  1  0  0  0
    4.2087    3.2589    0.6130 H   0  0  0  0  0  0
    2.0692    2.9373    0.4684 C   0  0  2  0  0  0
    1.2851    2.4618    1.0566 H   0  0  0  0  0  0
    1.9963    2.4452   -0.8696 O   0  0  0  0  0  0
    1.7727    4.4472    0.3744 C   0  0  0  0  0  0
    1.4841    5.0501    1.6879 N   0  3  0  0  0  0
    3.4168    2.8631    2.4670 O   0  0  0  0  0  0
    5.2154    1.0044    1.1641 O   0  0  0  0  0  0
    3.9514   -0.6740   -0.8841 N   0  0  0  0  0  0
   -0.4839    0.5849    1.9497 N   0  0  0  0  0  0
   -2.7312    0.4786    0.4317 H   0  0  0  0  0  0
   -2.6244   -0.9198    1.4757 H   0  0  0  0  0  0
   -4.4218   -0.7516   -0.8867 H   0  0  0  0  0  0
   -4.4836   -5.8634   -2.9288 H   0  0  0  0  0  0
   -4.7235   -4.7380   -1.6068 H   0  0  0  0  0  0
   -6.6621   -5.2588   -2.6437 H   0  0  0  0  0  0
   -5.4112   -4.3699   -5.2692 H   0  0  0  0  0  0
   -1.6939   -4.6724   -6.7033 H   0  0  0  0  0  0
    0.6280   -2.7122   -4.2575 H   0  0  0  0  0  0
   -0.8319    1.3132   -2.7763 H   0  0  0  0  0  0
    2.6024    4.9765   -0.0950 H   0  0  0  0  0  0
    0.8979    4.6109   -0.2559 H   0  0  0  0  0  0
    1.3032    6.0374    1.5747 H   0  0  0  0  0  0
    2.8789    2.2020    2.8755 H   0  0  0  0  0  0
    5.4589    0.0963    1.0675 H   0  0  0  0  0  0
    3.8363   -0.8785   -1.8759 H   0  0  0  0  0  0
   -0.8847    0.1320    2.7703 H   0  0  0  0  0  0
    2.2805    4.9220    2.2968 H   0  0  0  0  0  0
   -4.2892   -2.0456    0.1258 H   0  0  0  0  0  0
    0.5158    0.6787    2.1245 H   0  0  0  0  0  0
   -1.2413   -3.1311   -7.0785 H   0  0  0  0  0  0
    4.9234   -0.8742   -0.6531 H   0  0  0  0  0  0
    0.6749    4.6045    2.0960 H   0  0  0  0  0  0
   -4.1329   -2.2531   -1.5023 H   0  0  0  0  0  0
   -2.7890   -3.6301   -7.3625 H   0  0  0  0  0  0
  1 10  1  0  0  0
  1  2  1  0  0  0
  1 49  1  0  0  0
  1 50  1  0  0  0
  2  3  1  0  0  0
  2  4  1  0  0  0
  2 48  1  0  0  0
  4  5  1  0  0  0
  4  6  1  0  0  0
  4 31  1  0  0  0
  6  7  1  0  0  0
  6  8  1  0  0  0
  6 30  1  0  0  0
  8  9  1  0  0  0
  8 10  1  0  0  0
  8 13  1  0  0  0
 10 11  1  0  0  0
 10 12  1  0  0  0
 12 51  1  0  0  0
 12 67  1  0  0  0
 12 72  1  0  0  0
 13 14  1  0  0  0
 14 15  1  0  0  0
 14 24  1  0  0  0
 14 16  1  0  0  0
 16 17  1  0  0  0
 16 18  1  0  0  0
 16 29  1  0  0  0
 18 19  1  0  0  0
 18 20  1  0  0  0
 18 28  1  0  0  0
 20 21  1  0  0  0
 20 22  1  0  0  0
 20 27  1  0  0  0
 22 23  1  0  0  0
 22 24  1  0  0  0
 22 25  1  0  0  0
 25 26  1  0  0  0
 25 52  1  0  0  0
 25 53  1  0  0  0
 26 54  1  0  0  0
 27 55  1  0  0  0
 28 56  1  0  0  0
 28 69  1  0  0  0
 28 73  1  0  0  0
 29 57  1  0  0  0
 30 58  1  0  0  0
 31 32  1  0  0  0
 32 33  1  0  0  0
 32 42  1  0  0  0
 32 34  1  0  0  0
 34 35  1  0  0  0
 34 36  1  0  0  0
 34 47  1  0  0  0
 36 37  1  0  0  0
 36 38  1  0  0  0
 36 46  1  0  0  0
 38 39  1  0  0  0
 38 40  1  0  0  0
 38 45  1  0  0  0
 40 41  1  0  0  0
 40 42  1  0  0  0
 40 43  1  0  0  0
 43 44  1  0  0  0
 43 59  1  0  0  0
 43 60  1  0  0  0
 44 61  1  0  0  0
 44 66  1  0  0  0
 44 71  1  0  0  0
 45 62  1  0  0  0
 46 63  1  0  0  0
 47 64  1  0  0  0
 47 70  1  0  0  0
 48 65  1  0  0  0
 48 68  1  0  0  0
M  CHG  3  12   1  28   1  44   1
M  END
> <s_m_entry_id>
71

> <s_m_entry_name>
biosynth_p1.0.sdf.64

> <s_m_Source_Path>
/Users/Sebastito/Downloads

> <s_m_Source_File>
biosynth_p1.0.sdf.gz

> <i_m_Source_File_Index>
64

> <chiral flag>
1

> <version>
0

> <i_m_ct_enhanced_stereo_status>
0

> <s_m_source_file>
ligprep_vs.maegz

> <i_m_source_file_index>
64

> <i_lp_mmshare_version>
37011

> <r_epik_Ionization_Penalty>
2.11061

> <r_epik_Ionization_Penalty_Charging>
0.0725333

> <r_epik_Ionization_Penalty_Neutral>
2.03808

> <r_epik_State_Penalty>
2.17027

> <r_epik_Charging_Adjusted_Penalty>
2.2428

> <i_epik_Tot_Q>
3

> <i_epik_Tot_abs_Q>
3

> <s_epik_Chemistry_Notes>
This compound contains an acetal/aminal-like group ( X-CH(R)-Y where X, Y are N, S, or O) that may be acid/base labile, releasing an aldehyde.

> <i_f3d_flags>
0

> <s_lp_Force_Field>
OPLS_2005

> <r_lp_Energy>
78.6029

> <b_lp_Chiralities_Consistent>
1

> <s_lp_Variant>
ZINC53132258-8

$$$$
ZINC21986016
                    3D
 Structure written by MMmdl.
 30 32  0  0  1  0            999 V2000
   -3.1572    0.3061   -0.3921 C   0  0  0  0  0  0
   -2.4438    0.8650    0.6928 C   0  0  0  0  0  0
   -3.2514    1.4522    1.5347 N   0  0  0  0  0  0
   -5.3191    1.5798    1.3533 H   0  0  0  0  0  0
   -4.4581    1.2427    0.9467 N   0  0  0  0  0  0
   -4.4332    0.5501   -0.2250 N   0  0  0  0  0  0
   -0.7032    0.7975    0.9134 S   0  0  0  0  0  0
   -0.0294    0.0178   -0.5806 C   0  0  0  0  0  0
    1.4939   -0.0917   -0.5406 C   0  0  0  0  0  0
    2.1757   -1.2625   -0.3942 C   0  0  0  0  0  0
    3.5777   -1.3069   -0.2568 N   0  0  0  0  0  0
    4.3837   -0.1405    0.0511 C   0  0  1  0  0  0
    4.2515    0.1571    1.0937 H   0  0  0  0  0  0
    5.6238   -1.0253   -0.1704 C   0  0  1  0  0  0
    6.3108   -0.9911    0.6754 H   0  0  0  0  0  0
    4.6275   -2.2081   -0.1543 C   0  0  0  0  0  0
    4.6797   -3.4176   -0.0912 O   0  0  0  0  0  0
    6.3965   -0.9996   -1.4112 N   0  0  0  0  0  0
    3.9256    1.2028   -1.0800 S   0  0  0  0  0  0
    2.1756    1.2747   -0.6262 C   0  0  0  0  0  0
    1.4554   -2.6519   -0.3076 C   0  0  0  0  0  0
    0.7908   -2.9939   -1.3106 O   0  0  0  0  0  0
    1.6232   -3.2946    0.7521 O   0  5  0  0  0  0
   -2.7988   -0.2427   -1.2504 H   0  0  0  0  0  0
   -0.5224   -0.9437   -0.6974 H   0  0  0  0  0  0
   -0.3187    0.6089   -1.4496 H   0  0  0  0  0  0
    6.8873   -0.1216   -1.4966 H   0  0  0  0  0  0
    1.6684    1.8982   -1.3626 H   0  0  0  0  0  0
    2.0842    1.7754    0.3377 H   0  0  0  0  0  0
    7.0987   -1.7249   -1.3965 H   0  0  0  0  0  0
  1  6  2  0  0  0
  1  2  1  0  0  0
  1 24  1  0  0  0
  2  7  1  0  0  0
  2  3  2  0  0  0
  3  5  1  0  0  0
  4  5  1  0  0  0
  5  6  1  0  0  0
  7  8  1  0  0  0
  8  9  1  0  0  0
  8 25  1  0  0  0
  8 26  1  0  0  0
  9 20  1  0  0  0
  9 10  2  0  0  0
 10 11  1  0  0  0
 10 21  1  0  0  0
 11 16  1  0  0  0
 11 12  1  0  0  0
 12 13  1  0  0  0
 12 14  1  0  0  0
 12 19  1  0  0  0
 14 15  1  0  0  0
 14 16  1  0  0  0
 14 18  1  0  0  0
 16 17  2  0  0  0
 18 27  1  0  0  0
 18 30  1  0  0  0
 19 20  1  0  0  0
 20 28  1  0  0  0
 20 29  1  0  0  0
 21 22  2  0  0  0
 21 23  1  0  0  0
M  CHG  1  23  -1
M  END
> <s_m_entry_id>
72

> <s_m_entry_name>
biosynth_p1.0.sdf.65

> <s_m_Source_Path>
/Users/Sebastito/Downloads

> <s_m_Source_File>
biosynth_p1.0.sdf.gz

> <i_m_Source_File_Index>
65

> <chiral flag>
1

> <version>
0

> <i_m_ct_enhanced_stereo_status>
0

> <s_m_source_file>
ligprep_vs.maegz

> <i_m_source_file_index>
65

> <i_lp_mmshare_version>
37011

> <r_lp_tautomer_probability>
0.760114

> <r_epik_Ionization_Penalty>
0.0509744

> <r_epik_Ionization_Penalty_Charging>
3.53719e-05

> <r_epik_Ionization_Penalty_Neutral>
0.050939

> <r_epik_State_Penalty>
0.184025

> <r_epik_Charging_Adjusted_Penalty>
0.184061

> <i_epik_Tot_Q>
-1

> <i_epik_Tot_abs_Q>
1

> <s_epik_Chemistry_Notes>
This compound contains an acetal/aminal-like group ( X-CH(R)-Y where X, Y are N, S, or O) that may be acid/base labile, releasing an aldehyde.

> <i_f3d_flags>
0

> <s_lp_Force_Field>
OPLS_2005

> <r_lp_Energy>
16.6591

> <b_lp_Chiralities_Consistent>
1

> <s_lp_Variant>
ZINC21986016-1

$$$$
ZINC21986016
                    3D
 Structure written by MMmdl.
 30 32  0  0  1  0            999 V2000
    0.0063    0.8632   -2.5133 C   0  0  0  0  0  0
   -1.0561    1.1219   -1.6909 C   0  0  0  0  0  0
   -2.2302    0.9376   -2.4261 N   0  0  0  0  0  0
   -0.1103    0.2276   -4.5407 H   0  0  0  0  0  0
   -1.9375    0.5583   -3.6307 N   0  0  0  0  0  0
   -0.5921    0.5080   -3.6988 N   0  0  0  0  0  0
   -1.0859    1.6296   -0.0116 S   0  0  0  0  0  0
   -0.1394    0.3995    0.9395 C   0  0  0  0  0  0
    1.2930    0.1989    0.4453 C   0  0  0  0  0  0
    1.7544   -0.9508   -0.1251 C   0  0  0  0  0  0
    3.1048   -1.1186   -0.4944 N   0  0  0  0  0  0
    4.1708   -0.2477   -0.0354 C   0  0  1  0  0  0
    4.3995   -0.4367    1.0158 H   0  0  0  0  0  0
    5.1068   -0.9969   -1.0001 C   0  0  1  0  0  0
    5.9956   -1.3799   -0.4980 H   0  0  0  0  0  0
    3.9485   -2.0116   -1.1398 C   0  0  0  0  0  0
    3.7838   -3.1154   -1.6132 O   0  0  0  0  0  0
    5.4933   -0.4519   -2.3003 N   0  0  0  0  0  0
    3.6751    1.4771   -0.3014 S   0  0  0  0  0  0
    2.1731    1.4225    0.7040 C   0  0  0  0  0  0
    0.8373   -2.2023   -0.3691 C   0  0  0  0  0  0
   -0.1873   -2.0172   -1.0612 O   0  0  0  0  0  0
    1.2168   -3.2733    0.1539 O   0  5  0  0  0  0
    1.0755    0.8844   -2.3632 H   0  0  0  0  0  0
   -0.7139   -0.5241    0.9605 H   0  0  0  0  0  0
   -0.0979    0.7341    1.9761 H   0  0  0  0  0  0
    6.0967    0.3480   -2.1758 H   0  0  0  0  0  0
    1.6208    2.3411    0.5093 H   0  0  0  0  0  0
    2.4490    1.4340    1.7584 H   0  0  0  0  0  0
    6.0233   -1.1373   -2.8189 H   0  0  0  0  0  0
  1 24  1  0  0  0
  1  2  2  0  0  0
  1  6  1  0  0  0
  2  7  1  0  0  0
  2  3  1  0  0  0
  3  5  2  0  0  0
  4  6  1  0  0  0
  5  6  1  0  0  0
  7  8  1  0  0  0
  8  9  1  0  0  0
  8 25  1  0  0  0
  8 26  1  0  0  0
  9 20  1  0  0  0
  9 10  2  0  0  0
 10 11  1  0  0  0
 10 21  1  0  0  0
 11 16  1  0  0  0
 11 12  1  0  0  0
 12 13  1  0  0  0
 12 14  1  0  0  0
 12 19  1  0  0  0
 14 15  1  0  0  0
 14 16  1  0  0  0
 14 18  1  0  0  0
 16 17  2  0  0  0
 18 27  1  0  0  0
 18 30  1  0  0  0
 19 20  1  0  0  0
 20 28  1  0  0  0
 20 29  1  0  0  0
 21 22  2  0  0  0
 21 23  1  0  0  0
M  CHG  1  23  -1
M  END
> <s_m_entry_id>
72

> <s_m_entry_name>
biosynth_p1.0.sdf.65

> <s_m_Source_Path>
/Users/Sebastito/Downloads

> <s_m_Source_File>
biosynth_p1.0.sdf.gz

> <i_m_Source_File_Index>
65

> <chiral flag>
1

> <version>
0

> <i_m_ct_enhanced_stereo_status>
0

> <s_m_source_file>
ligprep_vs.maegz

> <i_m_source_file_index>
65

> <i_lp_mmshare_version>
37011

> <r_lp_tautomer_probability>
0.22955

> <r_epik_Ionization_Penalty>
0.087142

> <r_epik_Ionization_Penalty_Charging>
4.07542e-05

> <r_epik_Ionization_Penalty_Neutral>
0.0871012

> <r_epik_State_Penalty>
0.967759

> <r_epik_Charging_Adjusted_Penalty>
0.9678

> <i_epik_Tot_Q>
-1

> <i_epik_Tot_abs_Q>
1

> <s_epik_Chemistry_Notes>
This compound contains an acetal/aminal-like group ( X-CH(R)-Y where X, Y are N, S, or O) that may be acid/base labile, releasing an aldehyde.

> <i_f3d_flags>
0

> <s_lp_Force_Field>
OPLS_2005

> <r_lp_Energy>
11.9029

> <b_lp_Chiralities_Consistent>
1

> <s_lp_Variant>
ZINC21986016-2

$$$$
ZINC21986016
                    3D
 Structure written by MMmdl.
 31 33  0  0  1  0            999 V2000
   -0.5260    1.5887    3.1802 C   0  0  0  0  0  0
   -0.8011    1.0794    1.8931 C   0  0  0  0  0  0
   -1.0709   -0.1971    1.9386 N   0  0  0  0  0  0
   -1.0800   -1.3816    3.6465 H   0  0  0  0  0  0
   -0.9405   -0.4569    3.2647 N   0  0  0  0  0  0
   -0.6118    0.6094    4.0459 N   0  0  0  0  0  0
   -0.7824    2.0338    0.4217 S   0  0  0  0  0  0
   -0.1815    0.9202   -0.8832 C   0  0  0  0  0  0
    1.2715    0.4912   -0.6672 C   0  0  0  0  0  0
    1.6719   -0.7900   -0.4277 C   0  0  0  0  0  0
    3.0080   -1.1193   -0.1208 N   0  0  0  0  0  0
    4.0091   -0.1331    0.2440 C   0  0  1  0  0  0
    3.8348    0.2331    1.2582 H   0  0  0  0  0  0
    5.0437   -1.2727    0.1852 C   0  0  1  0  0  0
    5.6666   -1.3471    1.0770 H   0  0  0  0  0  0
    3.8237   -2.2155    0.1262 C   0  0  0  0  0  0
    3.6135   -3.4050    0.2244 O   0  0  0  0  0  0
    5.8087   -1.3384   -1.0744 N   0  3  0  0  0  0
    3.9636    1.2246   -0.9614 S   0  0  0  0  0  0
    2.2333    1.6797   -0.6998 C   0  0  0  0  0  0
    0.6752   -2.0008   -0.4240 C   0  0  0  0  0  0
    0.0443   -2.1987   -1.4853 O   0  0  0  0  0  0
    0.6244   -2.6704    0.6312 O   0  5  0  0  0  0
   -0.2704    2.5926    3.4853 H   0  0  0  0  0  0
   -0.8772    0.0868   -0.9463 H   0  0  0  0  0  0
   -0.2522    1.4399   -1.8388 H   0  0  0  0  0  0
    6.2958   -2.2213   -1.1266 H   0  0  0  0  0  0
    1.9464    2.3677   -1.4954 H   0  0  0  0  0  0
    2.1555    2.2241    0.2414 H   0  0  0  0  0  0
    6.4718   -0.5780   -1.1077 H   0  0  0  0  0  0
    5.1670   -1.2609   -1.8510 H   0  0  0  0  0  0
  1  6  2  0  0  0
  1  2  1  0  0  0
  1 24  1  0  0  0
  2  7  1  0  0  0
  2  3  2  0  0  0
  3  5  1  0  0  0
  4  5  1  0  0  0
  5  6  1  0  0  0
  7  8  1  0  0  0
  8  9  1  0  0  0
  8 25  1  0  0  0
  8 26  1  0  0  0
  9 20  1  0  0  0
  9 10  2  0  0  0
 10 11  1  0  0  0
 10 21  1  0  0  0
 11 16  1  0  0  0
 11 12  1  0  0  0
 12 13  1  0  0  0
 12 14  1  0  0  0
 12 19  1  0  0  0
 14 15  1  0  0  0
 14 16  1  0  0  0
 14 18  1  0  0  0
 16 17  2  0  0  0
 18 27  1  0  0  0
 18 30  1  0  0  0
 18 31  1  0  0  0
 19 20  1  0  0  0
 20 28  1  0  0  0
 20 29  1  0  0  0
 21 22  2  0  0  0
 21 23  1  0  0  0
M  CHG  2  18   1  23  -1
M  END
> <s_m_entry_id>
72

> <s_m_entry_name>
biosynth_p1.0.sdf.65

> <s_m_Source_Path>
/Users/Sebastito/Downloads

> <s_m_Source_File>
biosynth_p1.0.sdf.gz

> <i_m_Source_File_Index>
65

> <chiral flag>
1

> <version>
0

> <i_m_ct_enhanced_stereo_status>
0

> <s_m_source_file>
ligprep_vs.maegz

> <i_m_source_file_index>
65

> <i_lp_mmshare_version>
37011

> <r_lp_tautomer_probability>
0.760114

> <r_epik_Ionization_Penalty>
1.65856

> <r_epik_Ionization_Penalty_Charging>
1.64352

> <r_epik_Ionization_Penalty_Neutral>
0.0150374

> <r_epik_State_Penalty>
1.91459

> <r_epik_Charging_Adjusted_Penalty>
3.55811

> <i_epik_Tot_Q>
0

> <i_epik_Tot_abs_Q>
2

> <s_epik_Chemistry_Notes>
This compound contains an acetal/aminal-like group ( X-CH(R)-Y where X, Y are N, S, or O) that may be acid/base labile, releasing an aldehyde.

> <i_f3d_flags>
0

> <s_lp_Force_Field>
OPLS_2005

> <r_lp_Energy>
4.51878

> <b_lp_Chiralities_Consistent>
1

> <s_lp_Variant>
ZINC21986016-3

$$$$
ZINC21986016
                    3D
 Structure written by MMmdl.
 30 32  0  0  1  0            999 V2000
   -2.0042    0.9785   -2.6331 C   0  0  0  0  0  0
   -1.0305    1.0204   -1.6764 C   0  0  0  0  0  0
    0.0898    0.6065   -2.3598 N   0  0  0  0  0  0
    1.0140    0.5024   -1.9653 H   0  0  0  0  0  0
   -0.1728    0.3089   -3.6494 N   0  0  0  0  0  0
   -1.4375    0.5358   -3.8306 N   0  0  0  0  0  0
   -1.1028    1.5137    0.0138 S   0  0  0  0  0  0
   -0.1053    0.3462    0.9946 C   0  0  0  0  0  0
    1.3271    0.1658    0.4918 C   0  0  0  0  0  0
    1.8158   -0.9955   -0.0302 C   0  0  0  0  0  0
    3.1641   -1.1395   -0.4165 N   0  0  0  0  0  0
    4.2099   -0.2114   -0.0283 C   0  0  1  0  0  0
    4.4726   -0.3418    1.0238 H   0  0  0  0  0  0
    5.1452   -0.9741   -0.9834 C   0  0  1  0  0  0
    6.0650   -1.2940   -0.4932 H   0  0  0  0  0  0
    4.0251   -2.0387   -1.0297 C   0  0  0  0  0  0
    3.8916   -3.1748   -1.4311 O   0  0  0  0  0  0
    5.4655   -0.4840   -2.3230 N   0  0  0  0  0  0
    3.6496    1.4817   -0.3625 S   0  0  0  0  0  0
    2.1724    1.4261    0.6782 C   0  0  0  0  0  0
    0.9340   -2.2846   -0.1981 C   0  0  0  0  0  0
   -0.1058   -2.1637   -0.8820 O   0  0  0  0  0  0
    1.3530   -3.3164    0.3711 O   0  5  0  0  0  0
   -3.0530    1.2254   -2.5616 H   0  0  0  0  0  0
   -0.6536   -0.5911    1.0590 H   0  0  0  0  0  0
   -0.0609    0.7205    2.0176 H   0  0  0  0  0  0
    6.0304    0.3506   -2.2626 H   0  0  0  0  0  0
    1.5878    2.3179    0.4552 H   0  0  0  0  0  0
    2.4693    1.4931    1.7250 H   0  0  0  0  0  0
    6.0131   -1.1702   -2.8217 H   0  0  0  0  0  0
  1 24  1  0  0  0
  1  2  2  0  0  0
  1  6  1  0  0  0
  2  7  1  0  0  0
  2  3  1  0  0  0
  3  4  1  0  0  0
  3  5  1  0  0  0
  5  6  2  0  0  0
  7  8  1  0  0  0
  8  9  1  0  0  0
  8 25  1  0  0  0
  8 26  1  0  0  0
  9 20  1  0  0  0
  9 10  2  0  0  0
 10 11  1  0  0  0
 10 21  1  0  0  0
 11 16  1  0  0  0
 11 12  1  0  0  0
 12 13  1  0  0  0
 12 14  1  0  0  0
 12 19  1  0  0  0
 14 15  1  0  0  0
 14 16  1  0  0  0
 14 18  1  0  0  0
 16 17  2  0  0  0
 18 27  1  0  0  0
 18 30  1  0  0  0
 19 20  1  0  0  0
 20 28  1  0  0  0
 20 29  1  0  0  0
 21 22  2  0  0  0
 21 23  1  0  0  0
M  CHG  1  23  -1
M  END
> <s_m_entry_id>
72

> <s_m_entry_name>
biosynth_p1.0.sdf.65

> <s_m_Source_Path>
/Users/Sebastito/Downloads

> <s_m_Source_File>
biosynth_p1.0.sdf.gz

> <i_m_Source_File_Index>
65

> <chiral flag>
1

> <version>
0

> <i_m_ct_enhanced_stereo_status>
0

> <s_m_source_file>
ligprep_vs.maegz

> <i_m_source_file_index>
65

> <i_lp_mmshare_version>
37011

> <r_lp_tautomer_probability>
0.0103358

> <r_epik_Ionization_Penalty>
0.0443988

> <r_epik_Ionization_Penalty_Charging>
3.53719e-05

> <r_epik_Ionization_Penalty_Neutral>
0.0443634

> <r_epik_State_Penalty>
2.59534

> <r_epik_Charging_Adjusted_Penalty>
2.59538

> <i_epik_Tot_Q>
-1

> <i_epik_Tot_abs_Q>
1

> <s_epik_Chemistry_Notes>
This compound contains an acetal/aminal-like group ( X-CH(R)-Y where X, Y are N, S, or O) that may be acid/base labile, releasing an aldehyde.

> <i_f3d_flags>
0

> <s_lp_Force_Field>
OPLS_2005

> <r_lp_Energy>
11.961

> <b_lp_Chiralities_Consistent>
1

> <s_lp_Variant>
ZINC21986016-4

$$$$
ZINC21986016
                    3D
 Structure written by MMmdl.
 31 33  0  0  1  0            999 V2000
   -3.0831    0.2833    0.6532 C   0  0  0  0  0  0
   -2.4748    0.8141   -0.4513 C   0  0  0  0  0  0
   -3.4593    1.4014   -1.2511 N   0  0  0  0  0  0
   -5.1689    0.3375    1.0760 H   0  0  0  0  0  0
   -4.6209    1.2542   -0.6947 N   0  0  0  0  0  0
   -4.4110    0.5813    0.4546 N   0  0  0  0  0  0
   -0.7818    0.8265   -0.9063 S   0  0  0  0  0  0
    0.1002    0.0759    0.4900 C   0  0  0  0  0  0
    1.5948   -0.0707    0.2189 C   0  0  0  0  0  0
    2.2015   -1.2494   -0.0961 C   0  0  0  0  0  0
    3.5983   -1.3627   -0.2498 N   0  0  0  0  0  0
    4.5353   -0.3399    0.1805 C   0  0  1  0  0  0
    4.6352   -0.3441    1.2682 H   0  0  0  0  0  0
    5.6327   -1.1565   -0.5279 C   0  0  1  0  0  0
    6.5029   -1.3594    0.0968 H   0  0  0  0  0  0
    4.5773   -2.2785   -0.6109 C   0  0  0  0  0  0
    4.5531   -3.4573   -0.8912 O   0  0  0  0  0  0
    5.9769   -0.6722   -1.8781 N   0  3  0  0  0  0
    3.9681    1.2784   -0.4208 S   0  0  0  0  0  0
    2.3439    1.2519    0.3746 C   0  0  0  0  0  0
    1.3956   -2.5860   -0.2671 C   0  0  0  0  0  0
    0.4493   -2.5616   -1.0839 O   0  0  0  0  0  0
    1.7746   -3.5522    0.4306 O   0  5  0  0  0  0
   -2.7089   -0.2538    1.5121 H   0  0  0  0  0  0
   -0.3701   -0.8754    0.7327 H   0  0  0  0  0  0
   -0.0399    0.7027    1.3709 H   0  0  0  0  0  0
    6.5252   -1.3718   -2.3571 H   0  0  0  0  0  0
    1.7578    2.0683   -0.0474 H   0  0  0  0  0  0
    2.4636    1.4605    1.4379 H   0  0  0  0  0  0
    6.5028    0.1867   -1.8058 H   0  0  0  0  0  0
    5.1235   -0.5029   -2.3918 H   0  0  0  0  0  0
  1 24  1  0  0  0
  1  2  2  0  0  0
  1  6  1  0  0  0
  2  7  1  0  0  0
  2  3  1  0  0  0
  3  5  2  0  0  0
  4  6  1  0  0  0
  5  6  1  0  0  0
  7  8  1  0  0  0
  8  9  1  0  0  0
  8 25  1  0  0  0
  8 26  1  0  0  0
  9 20  1  0  0  0
  9 10  2  0  0  0
 10 11  1  0  0  0
 10 21  1  0  0  0
 11 16  1  0  0  0
 11 12  1  0  0  0
 12 13  1  0  0  0
 12 14  1  0  0  0
 12 19  1  0  0  0
 14 15  1  0  0  0
 14 16  1  0  0  0
 14 18  1  0  0  0
 16 17  2  0  0  0
 18 27  1  0  0  0
 18 30  1  0  0  0
 18 31  1  0  0  0
 19 20  1  0  0  0
 20 28  1  0  0  0
 20 29  1  0  0  0
 21 22  2  0  0  0
 21 23  1  0  0  0
M  CHG  2  18   1  23  -1
M  END
> <s_m_entry_id>
72

> <s_m_entry_name>
biosynth_p1.0.sdf.65

> <s_m_Source_Path>
/Users/Sebastito/Downloads

> <s_m_Source_File>
biosynth_p1.0.sdf.gz

> <i_m_Source_File_Index>
65

> <chiral flag>
1

> <version>
0

> <i_m_ct_enhanced_stereo_status>
0

> <s_m_source_file>
ligprep_vs.maegz

> <i_m_source_file_index>
65

> <i_lp_mmshare_version>
37011

> <r_lp_tautomer_probability>
0.22955

> <r_epik_Ionization_Penalty>
1.69814

> <r_epik_Ionization_Penalty_Charging>
1.64353

> <r_epik_Ionization_Penalty_Neutral>
0.0546189

> <r_epik_State_Penalty>
2.6929

> <r_epik_Charging_Adjusted_Penalty>
4.33642

> <i_epik_Tot_Q>
0

> <i_epik_Tot_abs_Q>
2

> <s_epik_Chemistry_Notes>
This compound contains an acetal/aminal-like group ( X-CH(R)-Y where X, Y are N, S, or O) that may be acid/base labile, releasing an aldehyde.

> <i_f3d_flags>
0

> <s_lp_Force_Field>
OPLS_2005

> <r_lp_Energy>
-0.838385

> <b_lp_Chiralities_Consistent>
1

> <s_lp_Variant>
ZINC21986016-5

$$$$
ZINC52981653
                    3D
 Structure written by MMmdl.
 28 27  0  0  1  0            999 V2000
   -0.7840   -0.5468    1.3627 C   0  0  0  0  0  0
   -0.1400    0.1490    0.1481 C   0  0  2  0  0  0
   -0.6582   -0.1975   -0.7469 H   0  0  0  0  0  0
    1.3795   -0.1158   -0.0137 C   0  0  2  0  0  0
    1.8920    0.2470    0.8779 H   0  0  0  0  0  0
    2.0101    0.5705   -1.2600 C   0  0  1  0  0  0
    1.6518    1.6005   -1.2657 H   0  0  0  0  0  0
    3.5616    0.6586   -1.3252 C   0  0  1  0  0  0
    4.0779    1.7611   -0.3940 C   0  0  0  0  0  0
    3.9001    2.9613   -0.5930 O   0  0  0  0  0  0
    4.2427   -0.6185   -1.0567 N   0  0  0  0  0  0
    1.5006    0.0546   -2.4760 O   0  0  0  0  0  0
    1.5857   -1.5153   -0.0832 O   0  0  0  0  0  0
   -0.4169    1.5320    0.2536 O   0  0  0  0  0  0
    0.0008   -0.3352    2.5254 O   0  0  0  0  0  0
   -0.5370   -1.1345    3.9119 S   0  0  0  0  0  0
   -1.9053   -0.6279    4.1018 O   0  0  0  0  0  0
   -0.4488   -2.5586    3.5526 O   0  0  0  0  0  0
    0.4235   -0.7021    4.9385 O   0  5  0  0  0  0
   -1.8030   -0.1896    1.5168 H   0  0  0  0  0  0
   -0.8532   -1.6179    1.1706 H   0  0  0  0  0  0
    4.6307    1.3794    0.4650 H   0  0  0  0  0  0
    1.7809    0.6178   -3.1812 H   0  0  0  0  0  0
    1.1375   -1.8431   -0.8476 H   0  0  0  0  0  0
   -0.1079    1.9608   -0.5293 H   0  0  0  0  0  0
    3.8435   -1.3603   -1.6301 H   0  0  0  0  0  0
    3.8194    0.9697   -2.3382 H   0  0  0  0  0  0
    5.2311   -0.5532   -1.2948 H   0  0  0  0  0  0
  1  2  1  0  0  0
  1 15  1  0  0  0
  1 20  1  0  0  0
  1 21  1  0  0  0
  2  3  1  0  0  0
  2  4  1  0  0  0
  2 14  1  0  0  0
  4  5  1  0  0  0
  4  6  1  0  0  0
  4 13  1  0  0  0
  6  7  1  0  0  0
  6  8  1  0  0  0
  6 12  1  0  0  0
  8  9  1  0  0  0
  8 11  1  0  0  0
  8 27  1  0  0  0
  9 10  2  0  0  0
  9 22  1  0  0  0
 11 26  1  0  0  0
 11 28  1  0  0  0
 12 23  1  0  0  0
 13 24  1  0  0  0
 14 25  1  0  0  0
 15 16  1  0  0  0
 16 17  2  0  0  0
 16 18  2  0  0  0
 16 19  1  0  0  0
M  CHG  1  19  -1
M  END
> <s_m_entry_id>
73

> <s_m_entry_name>
biosynth_p1.0.sdf.66

> <s_m_Source_Path>
/Users/Sebastito/Downloads

> <s_m_Source_File>
biosynth_p1.0.sdf.gz

> <i_m_Source_File_Index>
66

> <chiral flag>
1

> <version>
0

> <i_m_ct_enhanced_stereo_status>
0

> <s_m_source_file>
ligprep_vs.maegz

> <i_m_source_file_index>
66

> <i_lp_mmshare_version>
37011

> <r_epik_Ionization_Penalty>
0.439515

> <r_epik_Ionization_Penalty_Charging>
1.16813e-10

> <r_epik_Ionization_Penalty_Neutral>
0.439515

> <r_epik_State_Penalty>
0.021345

> <r_epik_Charging_Adjusted_Penalty>
0.021345

> <i_epik_Tot_Q>
-1

> <i_epik_Tot_abs_Q>
1

> <i_f3d_flags>
0

> <s_lp_Force_Field>
OPLS_2005

> <r_lp_Energy>
26.7634

> <b_lp_Chiralities_Consistent>
1

> <s_lp_Variant>
ZINC52981653-1

$$$$
ZINC52981653
                    3D
 Structure written by MMmdl.
 29 28  0  0  1  0            999 V2000
   -0.6250   -0.6421    1.3769 C   0  0  0  0  0  0
   -0.0658   -0.0620    0.0642 C   0  0  2  0  0  0
   -0.5260   -0.5652   -0.7874 H   0  0  0  0  0  0
    1.4783   -0.1672   -0.0415 C   0  0  2  0  0  0
    1.9112    0.3052    0.8416 H   0  0  0  0  0  0
    2.0791    0.5156   -1.3050 C   0  0  1  0  0  0
    1.6930    1.5348   -1.3379 H   0  0  0  0  0  0
    3.6269    0.6404   -1.3035 C   0  0  1  0  0  0
    4.3713   -0.6544   -1.6508 C   0  0  0  0  0  0
    4.9041   -1.3758   -0.8107 O   0  0  0  0  0  0
    4.0748    1.6552   -2.2736 N   0  3  0  0  0  0
    1.6038   -0.1191   -2.4809 O   0  0  0  0  0  0
    1.8511   -1.5329   -0.0041 O   0  0  0  0  0  0
   -0.4295    1.3050    0.0451 O   0  0  0  0  0  0
   -2.0170   -0.8616    1.2287 O   0  0  0  0  0  0
   -2.8261   -1.3015    2.6441 S   0  0  0  0  0  0
   -2.1401   -2.5307    3.0729 O   0  0  0  0  0  0
   -2.6329   -0.1431    3.5310 O   0  0  0  0  0  0
   -4.2103   -1.4994    2.1883 O   0  5  0  0  0  0
   -0.1667   -1.6065    1.5953 H   0  0  0  0  0  0
   -0.4055    0.0111    2.2226 H   0  0  0  0  0  0
    4.3929   -0.8684   -2.7198 H   0  0  0  0  0  0
    0.6594   -0.1563   -2.4400 H   0  0  0  0  0  0
    2.7926   -1.5937    0.0513 H   0  0  0  0  0  0
   -0.1895    1.6901    0.8742 H   0  0  0  0  0  0
    5.0804    1.7395   -2.2333 H   0  0  0  0  0  0
    3.9514    0.9821   -0.3201 H   0  0  0  0  0  0
    3.6513    2.5453   -2.0542 H   0  0  0  0  0  0
    3.7967    1.3707   -3.2023 H   0  0  0  0  0  0
  1  2  1  0  0  0
  1 15  1  0  0  0
  1 20  1  0  0  0
  1 21  1  0  0  0
  2  3  1  0  0  0
  2  4  1  0  0  0
  2 14  1  0  0  0
  4  5  1  0  0  0
  4  6  1  0  0  0
  4 13  1  0  0  0
  6  7  1  0  0  0
  6  8  1  0  0  0
  6 12  1  0  0  0
  8  9  1  0  0  0
  8 11  1  0  0  0
  8 27  1  0  0  0
  9 10  2  0  0  0
  9 22  1  0  0  0
 11 26  1  0  0  0
 11 28  1  0  0  0
 11 29  1  0  0  0
 12 23  1  0  0  0
 13 24  1  0  0  0
 14 25  1  0  0  0
 15 16  1  0  0  0
 16 17  2  0  0  0
 16 18  2  0  0  0
 16 19  1  0  0  0
M  CHG  2  11   1  19  -1
M  END
> <s_m_entry_id>
73

> <s_m_entry_name>
biosynth_p1.0.sdf.66

> <s_m_Source_Path>
/Users/Sebastito/Downloads

> <s_m_Source_File>
biosynth_p1.0.sdf.gz

> <i_m_Source_File_Index>
66

> <chiral flag>
1

> <version>
0

> <i_m_ct_enhanced_stereo_status>
0

> <s_m_source_file>
ligprep_vs.maegz

> <i_m_source_file_index>
66

> <i_lp_mmshare_version>
37011

> <r_epik_Ionization_Penalty>
3.03854

> <r_epik_Ionization_Penalty_Charging>
0.383184

> <r_epik_Ionization_Penalty_Neutral>
2.65535

> <r_epik_State_Penalty>
2.09962

> <r_epik_Charging_Adjusted_Penalty>
2.4828

> <i_epik_Tot_Q>
0

> <i_epik_Tot_abs_Q>
2

> <i_f3d_flags>
0

> <s_lp_Force_Field>
OPLS_2005

> <r_lp_Energy>
10.5515

> <b_lp_Chiralities_Consistent>
1

> <s_lp_Variant>
ZINC52981653-2

$$$$
ZINC18088362
                    3D
 Structure written by MMmdl.
 51 51  0  0  1  0            999 V2000
   -1.9433   -3.3694   -1.1481 C   0  0  0  0  0  0
   -1.3008   -2.0012   -1.3986 C   0  0  0  0  0  0
   -0.7127   -1.3862   -0.1141 C   0  0  0  0  0  0
   -0.0316   -0.0241   -0.3533 C   0  0  0  0  0  0
   -0.7332    1.0404   -0.4384 N   0  0  0  0  0  0
   -2.1145    0.8326   -0.3096 O   0  0  0  0  0  0
   -2.7625    2.0809   -0.4762 C   0  0  0  0  0  0
   -4.2717    1.8725   -0.3323 C   0  0  0  0  0  0
    1.4801    0.0532   -0.4903 C   0  0  0  0  0  0
    2.1669    1.2143   -0.2710 C   0  0  0  0  0  0
    3.6800    1.3678   -0.2493 C   0  0  0  0  0  0
    4.3527    0.0766    0.2249 C   0  0  1  0  0  0
    4.0334   -0.0992    1.2530 H   0  0  0  0  0  0
    3.8503   -1.0862   -0.6413 C   0  0  0  0  0  0
    2.3192   -1.1761   -0.7142 C   0  0  0  0  0  0
    1.8715   -2.2717   -1.0483 O   0  0  0  0  0  0
    5.8914    0.2158    0.2031 C   0  0  0  0  0  0
    6.6776   -0.9763    0.7900 C   0  0  1  0  0  0
    6.3705   -1.8843    0.2724 H   0  0  0  0  0  0
    8.1856   -0.7959    0.5611 C   0  0  0  0  0  0
    6.3083   -1.1936    2.5616 S   0  0  0  0  0  0
    6.9950   -2.8412    2.8980 C   0  0  0  0  0  0
    8.3303   -2.7623    3.6459 C   0  0  0  0  0  0
    1.6236    2.4031    0.0395 O   0  0  0  0  0  0
   -2.3494   -3.7824   -2.0716 H   0  0  0  0  0  0
   -2.7595   -3.2944   -0.4291 H   0  0  0  0  0  0
   -1.2144   -4.0800   -0.7574 H   0  0  0  0  0  0
   -0.5242   -2.1067   -2.1563 H   0  0  0  0  0  0
   -2.0488   -1.3318   -1.8248 H   0  0  0  0  0  0
   -1.5110   -1.2671    0.6194 H   0  0  0  0  0  0
   -0.0402   -2.0784    0.3877 H   0  0  0  0  0  0
   -2.4134    2.7941    0.2727 H   0  0  0  0  0  0
   -2.5381    2.4958   -1.4606 H   0  0  0  0  0  0
   -4.8092    2.8125   -0.4587 H   0  0  0  0  0  0
   -4.5193    1.4749    0.6522 H   0  0  0  0  0  0
   -4.6421    1.1712   -1.0803 H   0  0  0  0  0  0
    4.0139    1.6242   -1.2559 H   0  0  0  0  0  0
    3.9743    2.1935    0.4016 H   0  0  0  0  0  0
    4.2326   -0.9854   -1.6574 H   0  0  0  0  0  0
    4.2278   -2.0327   -0.2550 H   0  0  0  0  0  0
    6.2090    0.3783   -0.8278 H   0  0  0  0  0  0
    6.1759    1.1188    0.7451 H   0  0  0  0  0  0
    8.4038   -0.6187   -0.4922 H   0  0  0  0  0  0
    8.7427   -1.6842    0.8554 H   0  0  0  0  0  0
    8.5752    0.0503    1.1281 H   0  0  0  0  0  0
    6.2755   -3.3884    3.5070 H   0  0  0  0  0  0
    7.1045   -3.3986    1.9676 H   0  0  0  0  0  0
    8.7211   -3.7599    3.8463 H   0  0  0  0  0  0
    8.2120   -2.2541    4.6033 H   0  0  0  0  0  0
    9.0825   -2.2207    3.0736 H   0  0  0  0  0  0
    2.3322    3.0117    0.1824 H   0  0  0  0  0  0
  1  2  1  0  0  0
  1 25  1  0  0  0
  1 26  1  0  0  0
  1 27  1  0  0  0
  2  3  1  0  0  0
  2 28  1  0  0  0
  2 29  1  0  0  0
  3  4  1  0  0  0
  3 30  1  0  0  0
  3 31  1  0  0  0
  4  5  2  0  0  0
  4  9  1  0  0  0
  5  6  1  0  0  0
  6  7  1  0  0  0
  7  8  1  0  0  0
  7 32  1  0  0  0
  7 33  1  0  0  0
  8 34  1  0  0  0
  8 35  1  0  0  0
  8 36  1  0  0  0
  9 15  1  0  0  0
  9 10  2  0  0  0
 10 11  1  0  0  0
 10 24  1  0  0  0
 11 12  1  0  0  0
 11 37  1  0  0  0
 11 38  1  0  0  0
 12 13  1  0  0  0
 12 14  1  0  0  0
 12 17  1  0  0  0
 14 15  1  0  0  0
 14 39  1  0  0  0
 14 40  1  0  0  0
 15 16  2  0  0  0
 17 18  1  0  0  0
 17 41  1  0  0  0
 17 42  1  0  0  0
 18 19  1  0  0  0
 18 20  1  0  0  0
 18 21  1  0  0  0
 20 43  1  0  0  0
 20 44  1  0  0  0
 20 45  1  0  0  0
 21 22  1  0  0  0
 22 23  1  0  0  0
 22 46  1  0  0  0
 22 47  1  0  0  0
 23 48  1  0  0  0
 23 49  1  0  0  0
 23 50  1  0  0  0
 24 51  1  0  0  0
M  END
> <s_m_entry_id>
74

> <s_m_entry_name>
biosynth_p1.0.sdf.67

> <s_m_Source_Path>
/Users/Sebastito/Downloads

> <s_m_Source_File>
biosynth_p1.0.sdf.gz

> <i_m_Source_File_Index>
67

> <chiral flag>
1

> <version>
0

> <i_m_ct_enhanced_stereo_status>
0

> <s_m_source_file>
ligprep_vs.maegz

> <i_m_source_file_index>
67

> <i_lp_mmshare_version>
37011

> <r_epik_Ionization_Penalty>
2.97861

> <r_epik_Ionization_Penalty_Charging>
0

> <r_epik_Ionization_Penalty_Neutral>
2.97861

> <r_epik_State_Penalty>
0.325693

> <r_epik_Charging_Adjusted_Penalty>
0.325693

> <i_epik_Tot_Q>
0

> <i_epik_Tot_abs_Q>
0

> <s_epik_Chemistry_Notes>
This compound has an imine and may undergo hydrolysis.

> <i_f3d_flags>
0

> <s_lp_Force_Field>
OPLS_2005

> <r_lp_Energy>
24.4458

> <b_lp_Chiralities_Consistent>
1

> <s_lp_Variant>
ZINC18088362-1

$$$$
ZINC18088362
                    3D
 Structure written by MMmdl.
 51 51  0  0  1  0            999 V2000
   -2.3217   -3.3366    1.5006 C   0  0  0  0  0  0
   -1.7151   -2.4178    0.4348 C   0  0  0  0  0  0
   -0.7634   -1.3699    1.0353 C   0  0  0  0  0  0
   -0.1571   -0.4606   -0.0335 C   0  0  0  0  0  0
   -0.7303    0.5763   -0.5011 N   0  0  0  0  0  0
   -2.0003    0.8008    0.0492 O   0  0  0  0  0  0
   -2.5898    1.9099   -0.6144 C   0  0  0  0  0  0
   -3.0210    1.5550   -2.0462 C   0  0  0  0  0  0
    1.2202   -0.9133   -0.5308 C   0  0  1  0  0  0
    1.2014   -1.2503   -2.0329 C   0  0  0  0  0  0
    1.4718   -0.1454   -3.0634 C   0  0  0  0  0  0
    1.9338    1.1962   -2.4531 C   0  0  1  0  0  0
    1.0657    1.7085   -2.0430 H   0  0  0  0  0  0
    2.9186    0.9792   -1.2905 C   0  0  0  0  0  0
    2.3262    0.1012   -0.1818 C   0  0  0  0  0  0
    2.7380    0.2024    0.9729 O   0  0  0  0  0  0
    2.5491    2.1278   -3.5176 C   0  0  0  0  0  0
    1.6006    2.5373   -4.6669 C   0  0  1  0  0  0
    1.2035    1.6452   -5.1507 H   0  0  0  0  0  0
    0.4087    3.3797   -4.1857 C   0  0  0  0  0  0
    2.5116    3.4536   -5.9450 S   0  0  0  0  0  0
    3.2831    2.0903   -6.8621 C   0  0  0  0  0  0
    4.1023    2.6072   -8.0475 C   0  0  0  0  0  0
    0.9537   -2.3948   -2.4090 O   0  0  0  0  0  0
   -2.9921   -4.0669    1.0470 H   0  0  0  0  0  0
   -2.8959   -2.7659    2.2311 H   0  0  0  0  0  0
   -1.5458   -3.8840    2.0364 H   0  0  0  0  0  0
   -1.1817   -3.0256   -0.2974 H   0  0  0  0  0  0
   -2.5213   -1.9207   -0.1066 H   0  0  0  0  0  0
   -1.2850   -0.7693    1.7816 H   0  0  0  0  0  0
    0.0358   -1.8708    1.5826 H   0  0  0  0  0  0
   -3.4703    2.2048   -0.0432 H   0  0  0  0  0  0
   -1.9169    2.7697   -0.6097 H   0  0  0  0  0  0
   -3.5327    2.3959   -2.5145 H   0  0  0  0  0  0
   -3.7049    0.7062   -2.0470 H   0  0  0  0  0  0
   -2.1682    1.2988   -2.6752 H   0  0  0  0  0  0
    2.2389   -0.5183   -3.7428 H   0  0  0  0  0  0
    0.5708    0.0021   -3.6589 H   0  0  0  0  0  0
    3.8330    0.5093   -1.6537 H   0  0  0  0  0  0
    3.2045    1.9390   -0.8592 H   0  0  0  0  0  0
    2.9171    3.0326   -3.0314 H   0  0  0  0  0  0
    3.4313    1.6386   -3.9303 H   0  0  0  0  0  0
   -0.2400    2.8172   -3.5151 H   0  0  0  0  0  0
   -0.2059    3.7003   -5.0273 H   0  0  0  0  0  0
    0.7422    4.2742   -3.6588 H   0  0  0  0  0  0
    3.9237    1.5177   -6.1922 H   0  0  0  0  0  0
    2.5032    1.4156   -7.2164 H   0  0  0  0  0  0
    4.5594    1.7816   -8.5932 H   0  0  0  0  0  0
    4.9019    3.2691   -7.7141 H   0  0  0  0  0  0
    3.4757    3.1619   -8.7462 H   0  0  0  0  0  0
    1.4861   -1.8386   -0.0195 H   0  0  0  0  0  0
  1  2  1  0  0  0
  1 25  1  0  0  0
  1 26  1  0  0  0
  1 27  1  0  0  0
  2  3  1  0  0  0
  2 28  1  0  0  0
  2 29  1  0  0  0
  3  4  1  0  0  0
  3 30  1  0  0  0
  3 31  1  0  0  0
  4  5  2  0  0  0
  4  9  1  0  0  0
  5  6  1  0  0  0
  6  7  1  0  0  0
  7  8  1  0  0  0
  7 32  1  0  0  0
  7 33  1  0  0  0
  8 34  1  0  0  0
  8 35  1  0  0  0
  8 36  1  0  0  0
  9 15  1  0  0  0
  9 10  1  0  0  0
  9 51  1  0  0  0
 10 11  1  0  0  0
 10 24  2  0  0  0
 11 12  1  0  0  0
 11 37  1  0  0  0
 11 38  1  0  0  0
 12 13  1  0  0  0
 12 14  1  0  0  0
 12 17  1  0  0  0
 14 15  1  0  0  0
 14 39  1  0  0  0
 14 40  1  0  0  0
 15 16  2  0  0  0
 17 18  1  0  0  0
 17 41  1  0  0  0
 17 42  1  0  0  0
 18 19  1  0  0  0
 18 20  1  0  0  0
 18 21  1  0  0  0
 20 43  1  0  0  0
 20 44  1  0  0  0
 20 45  1  0  0  0
 21 22  1  0  0  0
 22 23  1  0  0  0
 22 46  1  0  0  0
 22 47  1  0  0  0
 23 48  1  0  0  0
 23 49  1  0  0  0
 23 50  1  0  0  0
M  END
> <s_m_entry_id>
74

> <s_m_entry_name>
biosynth_p1.0.sdf.67

> <s_m_Source_Path>
/Users/Sebastito/Downloads

> <s_m_Source_File>
biosynth_p1.0.sdf.gz

> <i_m_Source_File_Index>
67

> <chiral flag>
1

> <version>
0

> <i_m_ct_enhanced_stereo_status>
0

> <s_m_source_file>
ligprep_vs.maegz

> <i_m_source_file_index>
67

> <i_lp_mmshare_version>
37011

> <r_epik_Ionization_Penalty>
3.15029

> <r_epik_Ionization_Penalty_Charging>
0

> <r_epik_Ionization_Penalty_Neutral>
3.15029

> <r_epik_State_Penalty>
0.509932

> <r_epik_Charging_Adjusted_Penalty>
0.509932

> <i_epik_Tot_Q>
0

> <i_epik_Tot_abs_Q>
0

> <s_epik_Chemistry_Notes>
This compound has an imine and may undergo hydrolysis.

> <i_f3d_flags>
0

> <s_lp_Force_Field>
OPLS_2005

> <r_lp_Energy>
14.0208

> <b_lp_Chiralities_Consistent>
1

> <s_lp_Variant>
ZINC18088362-2

$$$$
ZINC19607061
                    3D
 Structure written by MMmdl.
 37 38  0  0  1  0            999 V2000
   -0.8960   -0.6419   -6.8415 C   0  0  0  0  0  0
   -2.2696   -0.4236   -7.0617 C   0  0  0  0  0  0
   -2.9731    0.4959   -6.2601 C   0  0  0  0  0  0
   -2.3041    1.1982   -5.2388 C   0  0  0  0  0  0
   -0.9271    0.9815   -5.0147 C   0  0  0  0  0  0
   -0.2257    0.0592   -5.8205 C   0  0  0  0  0  0
   -0.2035    1.7360   -3.9119 C   0  0  0  0  0  0
   -0.5700    1.2502   -2.5587 N   0  3  0  0  0  0
   -0.0855    2.1576   -1.4871 C   0  0  0  0  0  0
   -0.5411    1.6519   -0.1025 C   0  0  0  0  0  0
   -0.1153    0.2813    0.1812 N   0  0  0  0  0  0
   -0.6136   -0.5887   -0.8867 C   0  0  0  0  0  0
   -0.1546   -0.1533   -2.2929 C   0  0  0  0  0  0
    1.3263    0.1756    0.4287 C   0  0  0  0  0  0
    1.7932   -1.1849    0.9699 C   0  0  0  0  0  0
    3.1744   -1.1272    1.2498 O   0  0  0  0  0  0
   -2.9891    2.0760   -4.4674 F   0  0  0  0  0  0
   -0.3563   -1.3472   -7.4564 H   0  0  0  0  0  0
   -2.7836   -0.9615   -7.8449 H   0  0  0  0  0  0
   -4.0272    0.6617   -6.4283 H   0  0  0  0  0  0
    0.8282   -0.1150   -5.6584 H   0  0  0  0  0  0
    0.8766    1.6649   -4.0505 H   0  0  0  0  0  0
   -0.4590    2.7927   -4.0036 H   0  0  0  0  0  0
    1.0011    2.2411   -1.5328 H   0  0  0  0  0  0
   -0.4833    3.1593   -1.6534 H   0  0  0  0  0  0
   -0.1747    2.3224    0.6758 H   0  0  0  0  0  0
   -1.6294    1.7037   -0.0488 H   0  0  0  0  0  0
   -0.3263   -1.6234   -0.7039 H   0  0  0  0  0  0
   -1.7044   -0.5854   -0.8609 H   0  0  0  0  0  0
   -0.6015   -0.8215   -3.0289 H   0  0  0  0  0  0
    0.9263   -0.2504   -2.4000 H   0  0  0  0  0  0
    1.8892    0.4139   -0.4733 H   0  0  0  0  0  0
    1.6079    0.9344    1.1604 H   0  0  0  0  0  0
    1.2547   -1.4430    1.8822 H   0  0  0  0  0  0
    1.6252   -1.9838    0.2483 H   0  0  0  0  0  0
    3.4449   -1.9616    1.6020 H   0  0  0  0  0  0
   -1.5789    1.2678   -2.5098 H   0  0  0  0  0  0
  1  6  2  0  0  0
  1  2  1  0  0  0
  1 18  1  0  0  0
  2  3  2  0  0  0
  2 19  1  0  0  0
  3  4  1  0  0  0
  3 20  1  0  0  0
  4  5  2  0  0  0
  4 17  1  0  0  0
  5  6  1  0  0  0
  5  7  1  0  0  0
  6 21  1  0  0  0
  7  8  1  0  0  0
  7 22  1  0  0  0
  7 23  1  0  0  0
  8 13  1  0  0  0
  8  9  1  0  0  0
  8 37  1  0  0  0
  9 10  1  0  0  0
  9 24  1  0  0  0
  9 25  1  0  0  0
 10 11  1  0  0  0
 10 26  1  0  0  0
 10 27  1  0  0  0
 11 12  1  0  0  0
 11 14  1  0  0  0
 12 13  1  0  0  0
 12 28  1  0  0  0
 12 29  1  0  0  0
 13 30  1  0  0  0
 13 31  1  0  0  0
 14 15  1  0  0  0
 14 32  1  0  0  0
 14 33  1  0  0  0
 15 16  1  0  0  0
 15 34  1  0  0  0
 15 35  1  0  0  0
 16 36  1  0  0  0
M  CHG  1   8   1
M  END
> <s_m_entry_id>
75

> <s_m_entry_name>
biosynth_p1.0.sdf.68

> <s_m_Source_Path>
/Users/Sebastito/Downloads

> <s_m_Source_File>
biosynth_p1.0.sdf.gz

> <i_m_Source_File_Index>
68

> <chiral flag>
0

> <version>
0

> <i_m_ct_enhanced_stereo_status>
0

> <s_m_source_file>
ligprep_vs.maegz

> <i_m_source_file_index>
68

> <i_lp_mmshare_version>
37011

> <r_epik_Ionization_Penalty>
0.0587309

> <r_epik_Ionization_Penalty_Charging>
0.0180688

> <r_epik_Ionization_Penalty_Neutral>
0.0406622

> <r_epik_State_Penalty>
0.215382

> <r_epik_Charging_Adjusted_Penalty>
0.23345

> <i_epik_Tot_Q>
1

> <i_epik_Tot_abs_Q>
1

> <i_f3d_flags>
0

> <s_lp_Force_Field>
OPLS_2005

> <r_lp_Energy>
23.8511

> <b_lp_Chiralities_Consistent>
1

> <s_lp_Variant>
ZINC19607061-1

$$$$
ZINC19607061
                    3D
 Structure written by MMmdl.
 37 38  0  0  1  0            999 V2000
   -4.2500    0.5813   -5.1197 C   0  0  0  0  0  0
   -5.5141    1.1858   -4.9817 C   0  0  0  0  0  0
   -5.7323    2.1358   -3.9655 C   0  0  0  0  0  0
   -4.6879    2.4818   -3.0858 C   0  0  0  0  0  0
   -3.4194    1.8758   -3.2200 C   0  0  0  0  0  0
   -3.2044    0.9261   -4.2414 C   0  0  0  0  0  0
   -2.2895    2.2373   -2.2711 C   0  0  0  0  0  0
   -2.4950    1.7582   -0.9026 N   0  0  0  0  0  0
   -2.5401    0.2981   -0.7696 C   0  0  0  0  0  0
   -1.1602   -0.3517   -1.0004 C   0  0  0  0  0  0
   -0.1614    0.1989   -0.0533 N   0  3  0  0  0  0
   -0.1051    1.6772   -0.1746 C   0  0  0  0  0  0
   -1.5055    2.2921    0.0359 C   0  0  0  0  0  0
    1.1614   -0.4647   -0.1739 C   0  0  0  0  0  0
    2.0302   -0.2915    1.0839 C   0  0  0  0  0  0
    1.4234   -0.9356    2.1841 O   0  0  0  0  0  0
   -4.9083    3.3972   -2.1118 F   0  0  0  0  0  0
   -4.0826   -0.1469   -5.8996 H   0  0  0  0  0  0
   -6.3159    0.9216   -5.6553 H   0  0  0  0  0  0
   -6.7019    2.5997   -3.8604 H   0  0  0  0  0  0
   -2.2382    0.4566   -4.3528 H   0  0  0  0  0  0
   -1.3458    1.8775   -2.6794 H   0  0  0  0  0  0
   -2.2160    3.3256   -2.2528 H   0  0  0  0  0  0
   -2.8916    0.0546    0.2338 H   0  0  0  0  0  0
   -3.2764   -0.1211   -1.4555 H   0  0  0  0  0  0
   -1.2478   -1.4280   -0.8475 H   0  0  0  0  0  0
   -0.8229   -0.2109   -2.0281 H   0  0  0  0  0  0
    0.5678    2.0877    0.5772 H   0  0  0  0  0  0
    0.3067    1.9598   -1.1441 H   0  0  0  0  0  0
   -1.4615    3.3781   -0.0554 H   0  0  0  0  0  0
   -1.8441    2.0844    1.0519 H   0  0  0  0  0  0
    1.0209   -1.5326   -0.3484 H   0  0  0  0  0  0
    1.6831   -0.0789   -1.0510 H   0  0  0  0  0  0
    3.0077   -0.7459    0.9209 H   0  0  0  0  0  0
    2.2083    0.7565    1.3216 H   0  0  0  0  0  0
    1.9975   -0.8617    2.9321 H   0  0  0  0  0  0
   -0.5039   -0.0114    0.8737 H   0  0  0  0  0  0
  1  6  2  0  0  0
  1  2  1  0  0  0
  1 18  1  0  0  0
  2  3  2  0  0  0
  2 19  1  0  0  0
  3  4  1  0  0  0
  3 20  1  0  0  0
  4  5  2  0  0  0
  4 17  1  0  0  0
  5  6  1  0  0  0
  5  7  1  0  0  0
  6 21  1  0  0  0
  7  8  1  0  0  0
  7 22  1  0  0  0
  7 23  1  0  0  0
  8 13  1  0  0  0
  8  9  1  0  0  0
  9 10  1  0  0  0
  9 24  1  0  0  0
  9 25  1  0  0  0
 10 11  1  0  0  0
 10 26  1  0  0  0
 10 27  1  0  0  0
 11 12  1  0  0  0
 11 14  1  0  0  0
 11 37  1  0  0  0
 12 13  1  0  0  0
 12 28  1  0  0  0
 12 29  1  0  0  0
 13 30  1  0  0  0
 13 31  1  0  0  0
 14 15  1  0  0  0
 14 32  1  0  0  0
 14 33  1  0  0  0
 15 16  1  0  0  0
 15 34  1  0  0  0
 15 35  1  0  0  0
 16 36  1  0  0  0
M  CHG  1  11   1
M  END
> <s_m_entry_id>
75

> <s_m_entry_name>
biosynth_p1.0.sdf.68

> <s_m_Source_Path>
/Users/Sebastito/Downloads

> <s_m_Source_File>
biosynth_p1.0.sdf.gz

> <i_m_Source_File_Index>
68

> <chiral flag>
0

> <version>
0

> <i_m_ct_enhanced_stereo_status>
0

> <s_m_source_file>
ligprep_vs.maegz

> <i_m_source_file_index>
68

> <i_lp_mmshare_version>
37011

> <r_epik_Ionization_Penalty>
0.143147

> <r_epik_Ionization_Penalty_Charging>
0.0946311

> <r_epik_Ionization_Penalty_Neutral>
0.0485164

> <r_epik_State_Penalty>
0.8175

> <r_epik_Charging_Adjusted_Penalty>
0.912131

> <i_epik_Tot_Q>
1

> <i_epik_Tot_abs_Q>
1

> <i_f3d_flags>
0

> <s_lp_Force_Field>
OPLS_2005

> <r_lp_Energy>
22.1586

> <b_lp_Chiralities_Consistent>
1

> <s_lp_Variant>
ZINC19607061-2

$$$$
ZINC19607061
                    3D
 Structure written by MMmdl.
 38 39  0  0  1  0            999 V2000
   -5.8036    4.1233   -0.4323 C   0  0  0  0  0  0
   -5.7467    4.6638   -1.7313 C   0  0  0  0  0  0
   -5.1628    3.9231   -2.7768 C   0  0  0  0  0  0
   -4.6347    2.6420   -2.5244 C   0  0  0  0  0  0
   -4.6894    2.0966   -1.2232 C   0  0  0  0  0  0
   -5.2767    2.8420   -0.1785 C   0  0  0  0  0  0
   -4.1175    0.7159   -0.9489 C   0  0  0  0  0  0
   -2.6336    0.7070   -0.9755 N   0  3  2  0  0  0
   -2.0812   -0.6678   -1.0331 C   0  0  0  0  0  0
   -0.5480   -0.6454   -1.1637 C   0  0  0  0  0  0
    0.0749    0.1304   -0.0627 N   0  3  2  0  0  0
   -0.4796    1.5071   -0.0030 C   0  0  0  0  0  0
   -2.0131    1.4862    0.1265 C   0  0  0  0  0  0
    1.5592    0.0893   -0.1152 C   0  0  0  0  0  0
    2.2129    0.4099    1.2401 C   0  0  0  0  0  0
    1.8742   -0.5819    2.1860 O   0  0  0  0  0  0
   -4.0655    1.9393   -3.5331 F   0  0  0  0  0  0
   -6.2526    4.6916    0.3691 H   0  0  0  0  0  0
   -6.1512    5.6464   -1.9259 H   0  0  0  0  0  0
   -5.1192    4.3392   -3.7728 H   0  0  0  0  0  0
   -5.3248    2.4354    0.8212 H   0  0  0  0  0  0
   -4.4748    0.3390    0.0108 H   0  0  0  0  0  0
   -4.5039    0.0378   -1.7113 H   0  0  0  0  0  0
   -2.3729   -1.2157   -0.1354 H   0  0  0  0  0  0
   -2.5092   -1.2010   -1.8831 H   0  0  0  0  0  0
   -0.1720   -1.6693   -1.1527 H   0  0  0  0  0  0
   -0.2599   -0.2115   -2.1229 H   0  0  0  0  0  0
   -0.0624    2.0498    0.8443 H   0  0  0  0  0  0
   -0.1906    2.0548   -0.9015 H   0  0  0  0  0  0
   -2.3817    2.5121    0.1185 H   0  0  0  0  0  0
   -2.3022    1.0539    1.0860 H   0  0  0  0  0  0
    1.8887   -0.9038   -0.4254 H   0  0  0  0  0  0
    1.9154    0.7799   -0.8809 H   0  0  0  0  0  0
    3.2978    0.4199    1.1314 H   0  0  0  0  0  0
    1.9275    1.3914    1.6164 H   0  0  0  0  0  0
    2.3559   -0.4159    2.9831 H   0  0  0  0  0  0
   -2.3671    1.1575   -1.8399 H   0  0  0  0  0  0
   -0.1857   -0.3345    0.7959 H   0  0  0  0  0  0
  1  6  2  0  0  0
  1  2  1  0  0  0
  1 18  1  0  0  0
  2  3  2  0  0  0
  2 19  1  0  0  0
  3  4  1  0  0  0
  3 20  1  0  0  0
  4  5  2  0  0  0
  4 17  1  0  0  0
  5  6  1  0  0  0
  5  7  1  0  0  0
  6 21  1  0  0  0
  7  8  1  0  0  0
  7 22  1  0  0  0
  7 23  1  0  0  0
  8 13  1  0  0  0
  8  9  1  0  0  0
  8 37  1  0  0  0
  9 10  1  0  0  0
  9 24  1  0  0  0
  9 25  1  0  0  0
 10 11  1  0  0  0
 10 26  1  0  0  0
 10 27  1  0  0  0
 11 12  1  0  0  0
 11 14  1  0  0  0
 11 38  1  0  0  0
 12 13  1  0  0  0
 12 28  1  0  0  0
 12 29  1  0  0  0
 13 30  1  0  0  0
 13 31  1  0  0  0
 14 15  1  0  0  0
 14 32  1  0  0  0
 14 33  1  0  0  0
 15 16  1  0  0  0
 15 34  1  0  0  0
 15 35  1  0  0  0
 16 36  1  0  0  0
M  CHG  2   8   1  11   1
M  END
> <s_m_entry_id>
75

> <s_m_entry_name>
biosynth_p1.0.sdf.68

> <s_m_Source_Path>
/Users/Sebastito/Downloads

> <s_m_Source_File>
biosynth_p1.0.sdf.gz

> <i_m_Source_File_Index>
68

> <chiral flag>
0

> <version>
0

> <i_m_ct_enhanced_stereo_status>
0

> <s_m_source_file>
ligprep_vs.maegz

> <i_m_source_file_index>
68

> <i_lp_mmshare_version>
37011

> <r_epik_Ionization_Penalty>
3.11426

> <r_epik_Ionization_Penalty_Charging>
3.11425

> <r_epik_Ionization_Penalty_Neutral>
7.95504e-06

> <r_epik_State_Penalty>
2.13044

> <r_epik_Charging_Adjusted_Penalty>
5.24469

> <i_epik_Tot_Q>
2

> <i_epik_Tot_abs_Q>
2

> <i_f3d_flags>
0

> <s_lp_Force_Field>
OPLS_2005

> <r_lp_Energy>
19.7065

> <b_lp_Chiralities_Consistent>
1

> <s_lp_Variant>
ZINC19607061-3

$$$$
ZINC19607061
                    3D
 Structure written by MMmdl.
 38 39  0  0  1  0            999 V2000
   -5.8969    2.2303    3.8459 C   0  0  0  0  0  0
   -5.6787    1.3365    4.9116 C   0  0  0  0  0  0
   -4.4163    0.7356    5.0781 C   0  0  0  0  0  0
   -3.3709    1.0275    4.1805 C   0  0  0  0  0  0
   -3.5867    1.9215    3.1077 C   0  0  0  0  0  0
   -4.8535    2.5221    2.9461 C   0  0  0  0  0  0
   -2.4674    2.2495    2.1329 C   0  0  0  0  0  0
   -2.5816    1.4940    0.8565 N   0  3  2  0  0  0
   -2.4181    0.0218    0.9792 C   0  0  0  0  0  0
   -0.9440   -0.3802    1.1816 C   0  0  0  0  0  0
   -0.0816    0.1667    0.1040 N   0  3  1  0  0  0
   -0.2369    1.6397   -0.0219 C   0  0  0  0  0  0
   -1.7148    2.0324   -0.2211 C   0  0  0  0  0  0
    1.3312   -0.2727    0.2392 C   0  0  0  0  0  0
    2.1117   -0.1836   -1.0833 C   0  0  0  0  0  0
    1.5457   -1.0582   -2.0365 O   0  0  0  0  0  0
   -2.1622    0.4395    4.3483 F   0  0  0  0  0  0
   -6.8649    2.6929    3.7193 H   0  0  0  0  0  0
   -6.4789    1.1128    5.6020 H   0  0  0  0  0  0
   -4.2503    0.0501    5.8962 H   0  0  0  0  0  0
   -5.0297    3.2097    2.1317 H   0  0  0  0  0  0
   -2.5188    3.3188    1.9228 H   0  0  0  0  0  0
   -1.4968    2.0829    2.5998 H   0  0  0  0  0  0
   -3.0395   -0.3786    1.7796 H   0  0  0  0  0  0
   -2.7892   -0.4362    0.0612 H   0  0  0  0  0  0
   -0.5813   -0.0359    2.1510 H   0  0  0  0  0  0
   -0.8700   -1.4684    1.1900 H   0  0  0  0  0  0
    0.1699    2.1280    0.8646 H   0  0  0  0  0  0
    0.3383    2.0074   -0.8707 H   0  0  0  0  0  0
   -2.0681    1.6367   -1.1743 H   0  0  0  0  0  0
   -1.8189    3.1161   -0.2861 H   0  0  0  0  0  0
    1.8248    0.3188    1.0116 H   0  0  0  0  0  0
    1.3612   -1.3081    0.5830 H   0  0  0  0  0  0
    2.1377    0.8301   -1.4814 H   0  0  0  0  0  0
    3.1477   -0.4817   -0.9190 H   0  0  0  0  0  0
    2.0868   -1.0506   -2.8123 H   0  0  0  0  0  0
   -3.5322    1.6476    0.5498 H   0  0  0  0  0  0
   -0.4167   -0.2407   -0.7580 H   0  0  0  0  0  0
  1  6  2  0  0  0
  1  2  1  0  0  0
  1 18  1  0  0  0
  2  3  2  0  0  0
  2 19  1  0  0  0
  3  4  1  0  0  0
  3 20  1  0  0  0
  4  5  2  0  0  0
  4 17  1  0  0  0
  5  6  1  0  0  0
  5  7  1  0  0  0
  6 21  1  0  0  0
  7  8  1  0  0  0
  7 22  1  0  0  0
  7 23  1  0  0  0
  8 13  1  0  0  0
  8  9  1  0  0  0
  8 37  1  0  0  0
  9 10  1  0  0  0
  9 24  1  0  0  0
  9 25  1  0  0  0
 10 11  1  0  0  0
 10 26  1  0  0  0
 10 27  1  0  0  0
 11 12  1  0  0  0
 11 14  1  0  0  0
 11 38  1  0  0  0
 12 13  1  0  0  0
 12 28  1  0  0  0
 12 29  1  0  0  0
 13 30  1  0  0  0
 13 31  1  0  0  0
 14 15  1  0  0  0
 14 32  1  0  0  0
 14 33  1  0  0  0
 15 16  1  0  0  0
 15 34  1  0  0  0
 15 35  1  0  0  0
 16 36  1  0  0  0
M  CHG  2   8   1  11   1
M  END
> <s_m_entry_id>
75

> <s_m_entry_name>
biosynth_p1.0.sdf.68

> <s_m_Source_Path>
/Users/Sebastito/Downloads

> <s_m_Source_File>
biosynth_p1.0.sdf.gz

> <i_m_Source_File_Index>
68

> <chiral flag>
0

> <version>
0

> <i_m_ct_enhanced_stereo_status>
0

> <s_m_source_file>
ligprep_vs.maegz

> <i_m_source_file_index>
68

> <i_lp_mmshare_version>
37011

> <r_epik_Ionization_Penalty>
3.11426

> <r_epik_Ionization_Penalty_Charging>
3.11425

> <r_epik_Ionization_Penalty_Neutral>
7.95504e-06

> <r_epik_State_Penalty>
2.13044

> <r_epik_Charging_Adjusted_Penalty>
5.24469

> <i_epik_Tot_Q>
2

> <i_epik_Tot_abs_Q>
2

> <i_f3d_flags>
0

> <s_lp_Force_Field>
OPLS_2005

> <r_lp_Energy>
21.518

> <b_lp_Chiralities_Consistent>
1

> <s_lp_Variant>
ZINC19607061-4

$$$$
ZINC19607061
                    3D
 Structure written by MMmdl.
 36 37  0  0  1  0            999 V2000
   -4.4697    4.6324   -2.0305 C   0  0  0  0  0  0
   -5.5080    4.9069   -1.1204 C   0  0  0  0  0  0
   -6.0372    3.8722   -0.3254 C   0  0  0  0  0  0
   -5.5294    2.5628   -0.4377 C   0  0  0  0  0  0
   -4.4854    2.2831   -1.3478 C   0  0  0  0  0  0
   -3.9616    3.3240   -2.1454 C   0  0  0  0  0  0
   -3.9381    0.8698   -1.4871 C   0  0  0  0  0  0
   -2.4870    0.7734   -1.3387 N   0  0  0  0  0  0
   -2.0437    1.1074    0.0171 C   0  0  0  0  0  0
   -0.5137    0.9937    0.1564 C   0  0  0  0  0  0
   -0.0415   -0.3563   -0.1662 N   0  0  0  0  0  0
   -0.4858   -0.6834   -1.5215 C   0  0  0  0  0  0
   -2.0152   -0.5728   -1.6594 C   0  0  0  0  0  0
    1.4107   -0.4934   -0.0474 C   0  0  0  0  0  0
    1.9710   -0.4078    1.3837 C   0  0  0  0  0  0
    1.6111   -1.5595    2.1171 O   0  0  0  0  0  0
   -6.0523    1.5788    0.3326 F   0  0  0  0  0  0
   -4.0642    5.4249   -2.6421 H   0  0  0  0  0  0
   -5.9000    5.9095   -1.0333 H   0  0  0  0  0  0
   -6.8355    4.0829    0.3710 H   0  0  0  0  0  0
   -3.1666    3.1204   -2.8479 H   0  0  0  0  0  0
   -4.4277    0.2050   -0.7743 H   0  0  0  0  0  0
   -4.2250    0.5157   -2.4780 H   0  0  0  0  0  0
   -2.3455    2.1239    0.2702 H   0  0  0  0  0  0
   -2.5271    0.4501    0.7416 H   0  0  0  0  0  0
   -0.0308    1.7254   -0.4935 H   0  0  0  0  0  0
   -0.2433    1.2566    1.1778 H   0  0  0  0  0  0
   -0.0038   -0.0224   -2.2437 H   0  0  0  0  0  0
   -0.1782   -1.6983   -1.7753 H   0  0  0  0  0  0
   -2.4951   -1.3041   -1.0068 H   0  0  0  0  0  0
   -2.3019   -0.8302   -2.6794 H   0  0  0  0  0  0
    1.7203   -1.4493   -0.4728 H   0  0  0  0  0  0
    1.8915    0.2706   -0.6601 H   0  0  0  0  0  0
    3.0596   -0.3656    1.3442 H   0  0  0  0  0  0
    1.6447    0.4883    1.9094 H   0  0  0  0  0  0
    1.9771   -1.4897    2.9855 H   0  0  0  0  0  0
  1  6  2  0  0  0
  1  2  1  0  0  0
  1 18  1  0  0  0
  2  3  2  0  0  0
  2 19  1  0  0  0
  3  4  1  0  0  0
  3 20  1  0  0  0
  4  5  2  0  0  0
  4 17  1  0  0  0
  5  6  1  0  0  0
  5  7  1  0  0  0
  6 21  1  0  0  0
  7  8  1  0  0  0
  7 22  1  0  0  0
  7 23  1  0  0  0
  8 13  1  0  0  0
  8  9  1  0  0  0
  9 10  1  0  0  0
  9 24  1  0  0  0
  9 25  1  0  0  0
 10 11  1  0  0  0
 10 26  1  0  0  0
 10 27  1  0  0  0
 11 12  1  0  0  0
 11 14  1  0  0  0
 12 13  1  0  0  0
 12 28  1  0  0  0
 12 29  1  0  0  0
 13 30  1  0  0  0
 13 31  1  0  0  0
 14 15  1  0  0  0
 14 32  1  0  0  0
 14 33  1  0  0  0
 15 16  1  0  0  0
 15 34  1  0  0  0
 15 35  1  0  0  0
 16 36  1  0  0  0
M  END
> <s_m_entry_id>
75

> <s_m_entry_name>
biosynth_p1.0.sdf.68

> <s_m_Source_Path>
/Users/Sebastito/Downloads

> <s_m_Source_File>
biosynth_p1.0.sdf.gz

> <i_m_Source_File_Index>
68

> <chiral flag>
0

> <version>
0

> <i_m_ct_enhanced_stereo_status>
0

> <s_m_source_file>
ligprep_vs.maegz

> <i_m_source_file_index>
68

> <i_lp_mmshare_version>
37011

> <r_epik_Ionization_Penalty>
3.21038

> <r_epik_Ionization_Penalty_Charging>
0

> <r_epik_Ionization_Penalty_Neutral>
3.21038

> <r_epik_State_Penalty>
2.16918

> <r_epik_Charging_Adjusted_Penalty>
2.16918

> <i_epik_Tot_Q>
0

> <i_epik_Tot_abs_Q>
0

> <i_f3d_flags>
0

> <s_lp_Force_Field>
OPLS_2005

> <r_lp_Energy>
39.4169

> <b_lp_Chiralities_Consistent>
1

> <s_lp_Variant>
ZINC19607061-5

$$$$
ZINC18067717
                    3D
 Structure written by MMmdl.
 40 41  0  0  1  0            999 V2000
   -0.1874    1.6031    0.2745 C   0  0  0  0  0  0
    0.0130    0.1623   -0.2413 C   0  0  1  0  0  0
   -0.4464    0.0727   -1.2252 H   0  0  0  0  0  0
    1.5056   -0.1759   -0.4056 C   0  0  0  0  0  0
    2.1564    0.6100   -1.4673 N   0  3  0  0  0  0
    3.1878    1.3669   -1.2870 C   0  0  0  0  0  0
    3.7891    2.1306   -2.3931 C   0  0  0  0  0  0
    3.1732    2.1585   -3.6683 C   0  0  0  0  0  0
    3.7472    2.8921   -4.7241 C   0  0  0  0  0  0
    4.9412    3.6062   -4.5187 C   0  0  0  0  0  0
    5.5613    3.5874   -3.2559 C   0  0  0  0  0  0
    4.9938    2.8556   -2.1927 C   0  0  0  0  0  0
    5.6349    2.8672   -0.9839 O   0  0  0  0  0  0
   -0.5600   -0.7936    0.6933 N   0  0  0  0  0  0
   -1.8158   -1.0057    0.7608 C   0  0  0  0  0  0
   -2.9042   -0.4410   -0.0748 C   0  0  0  0  0  0
   -2.9507   -0.7136   -1.4612 C   0  0  0  0  0  0
   -3.9875   -0.1974   -2.2615 C   0  0  0  0  0  0
   -4.9972    0.5913   -1.6810 C   0  0  0  0  0  0
   -4.9703    0.8584   -0.2998 C   0  0  0  0  0  0
   -3.9332    0.3438    0.5044 C   0  0  0  0  0  0
   -3.9406    0.6264    1.8423 O   0  0  0  0  0  0
    0.2483    2.3323   -0.4086 H   0  0  0  0  0  0
    0.2809    1.7435    1.2495 H   0  0  0  0  0  0
   -1.2431    1.8553    0.3750 H   0  0  0  0  0  0
    2.0508   -0.0202    0.5275 H   0  0  0  0  0  0
    1.6316   -1.2213   -0.6897 H   0  0  0  0  0  0
    3.6274    1.4413   -0.2990 H   0  0  0  0  0  0
    2.2548    1.6225   -3.8572 H   0  0  0  0  0  0
    3.2702    2.9071   -5.6932 H   0  0  0  0  0  0
    5.3814    4.1690   -5.3290 H   0  0  0  0  0  0
    6.4782    4.1388   -3.1054 H   0  0  0  0  0  0
    6.4295    3.3792   -0.9886 H   0  0  0  0  0  0
   -2.1690   -1.6858    1.5403 H   0  0  0  0  0  0
   -2.1900   -1.3286   -1.9200 H   0  0  0  0  0  0
   -4.0105   -0.4108   -3.3202 H   0  0  0  0  0  0
   -5.7944    0.9871   -2.2930 H   0  0  0  0  0  0
   -5.7508    1.4606    0.1420 H   0  0  0  0  0  0
   -4.6777    1.1562    2.1056 H   0  0  0  0  0  0
    1.7547    0.5395   -2.3971 H   0  0  0  0  0  0
  1  2  1  0  0  0
  1 23  1  0  0  0
  1 24  1  0  0  0
  1 25  1  0  0  0
  2  3  1  0  0  0
  2  4  1  0  0  0
  2 14  1  0  0  0
  4  5  1  0  0  0
  4 26  1  0  0  0
  4 27  1  0  0  0
  5  6  2  0  0  0
  5 40  1  0  0  0
  6  7  1  0  0  0
  6 28  1  0  0  0
  7 12  2  0  0  0
  7  8  1  0  0  0
  8  9  2  0  0  0
  8 29  1  0  0  0
  9 10  1  0  0  0
  9 30  1  0  0  0
 10 11  2  0  0  0
 10 31  1  0  0  0
 11 12  1  0  0  0
 11 32  1  0  0  0
 12 13  1  0  0  0
 13 33  1  0  0  0
 14 15  2  0  0  0
 15 16  1  0  0  0
 15 34  1  0  0  0
 16 21  2  0  0  0
 16 17  1  0  0  0
 17 18  2  0  0  0
 17 35  1  0  0  0
 18 19  1  0  0  0
 18 36  1  0  0  0
 19 20  2  0  0  0
 19 37  1  0  0  0
 20 21  1  0  0  0
 20 38  1  0  0  0
 21 22  1  0  0  0
 22 39  1  0  0  0
M  CHG  1   5   1
M  END
> <s_m_entry_id>
76

> <s_m_entry_name>
biosynth_p1.0.sdf.69

> <s_m_Source_Path>
/Users/Sebastito/Downloads

> <s_m_Source_File>
biosynth_p1.0.sdf.gz

> <i_m_Source_File_Index>
69

> <chiral flag>
1

> <version>
0

> <i_m_ct_enhanced_stereo_status>
0

> <s_m_source_file>
ligprep_vs.maegz

> <i_m_source_file_index>
69

> <i_lp_mmshare_version>
37011

> <r_epik_Ionization_Penalty>
0.215151

> <r_epik_Ionization_Penalty_Charging>
0.00510961

> <r_epik_Ionization_Penalty_Neutral>
0.210042

> <r_epik_State_Penalty>
0.364285

> <r_epik_Charging_Adjusted_Penalty>
0.369395

> <i_epik_Tot_Q>
1

> <i_epik_Tot_abs_Q>
1

> <s_epik_Chemistry_Notes>
This compound has an imine and may undergo hydrolysis.

> <i_f3d_flags>
0

> <s_lp_Force_Field>
OPLS_2005

> <r_lp_Energy>
30.3029

> <b_lp_Chiralities_Consistent>
1

> <s_lp_Variant>
ZINC18067717-1

$$$$
ZINC18067717
                    3D
 Structure written by MMmdl.
 40 41  0  0  1  0            999 V2000
   -0.5547    1.3889   -0.5157 C   0  0  0  0  0  0
    0.1037    0.0330   -0.2126 C   0  0  1  0  0  0
   -0.0722   -0.6078   -1.0763 H   0  0  0  0  0  0
    1.6358    0.1226   -0.0341 C   0  0  0  0  0  0
    2.0033    0.8086    1.1931 N   0  0  0  0  0  0
    2.3938    2.0155    1.1179 C   0  0  0  0  0  0
    2.8038    2.8477    2.2770 C   0  0  0  0  0  0
    2.8806    2.2764    3.5703 C   0  0  0  0  0  0
    3.2665    3.0502    4.6811 C   0  0  0  0  0  0
    3.5807    4.4103    4.5157 C   0  0  0  0  0  0
    3.5088    4.9934    3.2379 C   0  0  0  0  0  0
    3.1237    4.2225    2.1219 C   0  0  0  0  0  0
    3.0653    4.8381    0.9021 O   0  0  0  0  0  0
   -0.5323   -0.6141    0.9579 N   0  3  0  0  0  0
   -1.3203   -1.6415    0.9609 C   0  0  0  0  0  0
   -1.7751   -2.2981   -0.2674 C   0  0  0  0  0  0
   -2.7397   -1.6581   -1.0757 C   0  0  0  0  0  0
   -3.1893   -2.2715   -2.2607 C   0  0  0  0  0  0
   -2.6789   -3.5270   -2.6410 C   0  0  0  0  0  0
   -1.7195   -4.1709   -1.8362 C   0  0  0  0  0  0
   -1.2638   -3.5632   -0.6485 C   0  0  0  0  0  0
   -0.3293   -4.2133    0.1102 O   0  0  0  0  0  0
   -0.0906    1.8642   -1.3802 H   0  0  0  0  0  0
   -0.4714    2.0749    0.3276 H   0  0  0  0  0  0
   -1.6153    1.2697   -0.7372 H   0  0  0  0  0  0
    2.0447   -0.8879    0.0026 H   0  0  0  0  0  0
    2.0849    0.5776   -0.9204 H   0  0  0  0  0  0
    2.4348    2.5089    0.1426 H   0  0  0  0  0  0
    2.6463    1.2333    3.7262 H   0  0  0  0  0  0
    3.3214    2.5983    5.6605 H   0  0  0  0  0  0
    3.8764    5.0056    5.3670 H   0  0  0  0  0  0
    3.7503    6.0394    3.1168 H   0  0  0  0  0  0
    3.3000    5.7529    0.9384 H   0  0  0  0  0  0
   -1.6455   -2.0537    1.9084 H   0  0  0  0  0  0
   -3.1395   -0.6956   -0.7915 H   0  0  0  0  0  0
   -3.9272   -1.7794   -2.8772 H   0  0  0  0  0  0
   -3.0247   -3.9976   -3.5498 H   0  0  0  0  0  0
   -1.3342   -5.1349   -2.1349 H   0  0  0  0  0  0
   -0.0745   -5.0500   -0.2477 H   0  0  0  0  0  0
   -0.2647   -0.2278    1.8585 H   0  0  0  0  0  0
  1  2  1  0  0  0
  1 23  1  0  0  0
  1 24  1  0  0  0
  1 25  1  0  0  0
  2  3  1  0  0  0
  2  4  1  0  0  0
  2 14  1  0  0  0
  4  5  1  0  0  0
  4 26  1  0  0  0
  4 27  1  0  0  0
  5  6  2  0  0  0
  6  7  1  0  0  0
  6 28  1  0  0  0
  7 12  2  0  0  0
  7  8  1  0  0  0
  8  9  2  0  0  0
  8 29  1  0  0  0
  9 10  1  0  0  0
  9 30  1  0  0  0
 10 11  2  0  0  0
 10 31  1  0  0  0
 11 12  1  0  0  0
 11 32  1  0  0  0
 12 13  1  0  0  0
 13 33  1  0  0  0
 14 15  2  0  0  0
 14 40  1  0  0  0
 15 16  1  0  0  0
 15 34  1  0  0  0
 16 21  2  0  0  0
 16 17  1  0  0  0
 17 18  2  0  0  0
 17 35  1  0  0  0
 18 19  1  0  0  0
 18 36  1  0  0  0
 19 20  2  0  0  0
 19 37  1  0  0  0
 20 21  1  0  0  0
 20 38  1  0  0  0
 21 22  1  0  0  0
 22 39  1  0  0  0
M  CHG  1  14   1
M  END
> <s_m_entry_id>
76

> <s_m_entry_name>
biosynth_p1.0.sdf.69

> <s_m_Source_Path>
/Users/Sebastito/Downloads

> <s_m_Source_File>
biosynth_p1.0.sdf.gz

> <i_m_Source_File_Index>
69

> <chiral flag>
1

> <version>
0

> <i_m_ct_enhanced_stereo_status>
0

> <s_m_source_file>
ligprep_vs.maegz

> <i_m_source_file_index>
69

> <i_lp_mmshare_version>
37011

> <r_epik_Ionization_Penalty>
0.285891

> <r_epik_Ionization_Penalty_Charging>
0.0076639

> <r_epik_Ionization_Penalty_Neutral>
0.278227

> <r_epik_State_Penalty>
0.758716

> <r_epik_Charging_Adjusted_Penalty>
0.76638

> <i_epik_Tot_Q>
1

> <i_epik_Tot_abs_Q>
1

> <s_epik_Chemistry_Notes>
This compound has an imine and may undergo hydrolysis.

> <i_f3d_flags>
0

> <s_lp_Force_Field>
OPLS_2005

> <r_lp_Energy>
26.8239

> <b_lp_Chiralities_Consistent>
1

> <s_lp_Variant>
ZINC18067717-2

$$$$
ZINC18067717
                    3D
 Structure written by MMmdl.
 41 42  0  0  1  0            999 V2000
   -0.3610    1.5191   -0.3406 C   0  0  0  0  0  0
    0.2155    0.1038   -0.2116 C   0  0  1  0  0  0
   -0.1417   -0.4796   -1.0600 H   0  0  0  0  0  0
    1.7537    0.1141   -0.2551 C   0  0  0  0  0  0
    2.3212   -1.2435   -0.3205 N   0  3  0  0  0  0
    3.0922   -1.7586    0.5789 C   0  0  0  0  0  0
    3.5756   -3.1451    0.4730 C   0  0  0  0  0  0
    3.4502   -3.8586   -0.7439 C   0  0  0  0  0  0
    3.9102   -5.1852   -0.8450 C   0  0  0  0  0  0
    4.5027   -5.8121    0.2658 C   0  0  0  0  0  0
    4.6377   -5.1107    1.4783 C   0  0  0  0  0  0
    4.1788   -3.7822    1.5893 C   0  0  0  0  0  0
    4.3274   -3.1421    2.7896 O   0  0  0  0  0  0
   -0.2741   -0.5379    1.0309 N   0  3  0  0  0  0
   -1.0592   -1.5630    1.1281 C   0  0  0  0  0  0
   -1.6407   -2.2274   -0.0407 C   0  0  0  0  0  0
   -2.7877   -1.6690   -0.6444 C   0  0  0  0  0  0
   -3.3627   -2.2837   -1.7731 C   0  0  0  0  0  0
   -2.7937   -3.4578   -2.3016 C   0  0  0  0  0  0
   -1.6482   -4.0177   -1.7033 C   0  0  0  0  0  0
   -1.0649   -3.4075   -0.5743 C   0  0  0  0  0  0
    0.0519   -3.9728   -0.0217 O   0  0  0  0  0  0
   -0.0386    1.9905   -1.2694 H   0  0  0  0  0  0
   -0.0414    2.1556    0.4852 H   0  0  0  0  0  0
   -1.4514    1.4990   -0.3441 H   0  0  0  0  0  0
    2.1109    0.6333   -1.1450 H   0  0  0  0  0  0
    2.1698    0.6246    0.6154 H   0  0  0  0  0  0
    3.3769   -1.1692    1.4428 H   0  0  0  0  0  0
    3.0033   -3.4024   -1.6150 H   0  0  0  0  0  0
    3.8098   -5.7220   -1.7772 H   0  0  0  0  0  0
    4.8559   -6.8301    0.1877 H   0  0  0  0  0  0
    5.0957   -5.5985    2.3268 H   0  0  0  0  0  0
    4.7527   -3.6741    3.4454 H   0  0  0  0  0  0
   -1.2962   -1.9574    2.1090 H   0  0  0  0  0  0
   -3.2317   -0.7676   -0.2466 H   0  0  0  0  0  0
   -4.2411   -1.8551   -2.2331 H   0  0  0  0  0  0
   -3.2366   -3.9293   -3.1669 H   0  0  0  0  0  0
   -1.2180   -4.9185   -2.1167 H   0  0  0  0  0  0
    0.2899   -4.7917   -0.4295 H   0  0  0  0  0  0
    2.0620   -1.8087   -1.1231 H   0  0  0  0  0  0
    0.0722   -0.1342    1.8963 H   0  0  0  0  0  0
  1  2  1  0  0  0
  1 23  1  0  0  0
  1 24  1  0  0  0
  1 25  1  0  0  0
  2  3  1  0  0  0
  2  4  1  0  0  0
  2 14  1  0  0  0
  4  5  1  0  0  0
  4 26  1  0  0  0
  4 27  1  0  0  0
  5  6  2  0  0  0
  5 40  1  0  0  0
  6  7  1  0  0  0
  6 28  1  0  0  0
  7 12  2  0  0  0
  7  8  1  0  0  0
  8  9  2  0  0  0
  8 29  1  0  0  0
  9 10  1  0  0  0
  9 30  1  0  0  0
 10 11  2  0  0  0
 10 31  1  0  0  0
 11 12  1  0  0  0
 11 32  1  0  0  0
 12 13  1  0  0  0
 13 33  1  0  0  0
 14 15  2  0  0  0
 14 41  1  0  0  0
 15 16  1  0  0  0
 15 34  1  0  0  0
 16 21  2  0  0  0
 16 17  1  0  0  0
 17 18  2  0  0  0
 17 35  1  0  0  0
 18 19  1  0  0  0
 18 36  1  0  0  0
 19 20  2  0  0  0
 19 37  1  0  0  0
 20 21  1  0  0  0
 20 38  1  0  0  0
 21 22  1  0  0  0
 22 39  1  0  0  0
M  CHG  2   5   1  14   1
M  END
> <s_m_entry_id>
76

> <s_m_entry_name>
biosynth_p1.0.sdf.69

> <s_m_Source_Path>
/Users/Sebastito/Downloads

> <s_m_Source_File>
biosynth_p1.0.sdf.gz

> <i_m_Source_File_Index>
69

> <chiral flag>
1

> <version>
0

> <i_m_ct_enhanced_stereo_status>
0

> <s_m_source_file>
ligprep_vs.maegz

> <i_m_source_file_index>
69

> <i_lp_mmshare_version>
37011

> <r_epik_Ionization_Penalty>
1.60237

> <r_epik_Ionization_Penalty_Charging>
1.50596

> <r_epik_Ionization_Penalty_Neutral>
0.0964138

> <r_epik_State_Penalty>
1.27578

> <r_epik_Charging_Adjusted_Penalty>
2.78174

> <i_epik_Tot_Q>
2

> <i_epik_Tot_abs_Q>
2

> <s_epik_Chemistry_Notes>
This compound has an imine and may undergo hydrolysis.

> <i_f3d_flags>
0

> <s_lp_Force_Field>
OPLS_2005

> <r_lp_Energy>
39.2883

> <b_lp_Chiralities_Consistent>
1

> <s_lp_Variant>
ZINC18067717-3

$$$$
ZINC18067717
                    3D
 Structure written by MMmdl.
 39 40  0  0  1  0            999 V2000
   -0.0763    2.2502    1.7396 C   0  0  0  0  0  0
    0.1672    0.7974    1.3069 C   0  0  1  0  0  0
    0.0212    0.7659    0.2275 H   0  0  0  0  0  0
    1.6171    0.3677    1.5931 C   0  0  0  0  0  0
    1.9017   -0.9881    1.0981 N   0  3  0  0  0  0
    2.7193   -1.2634    0.1375 C   0  0  0  0  0  0
    2.8680   -2.6368   -0.3769 C   0  0  0  0  0  0
    2.0863   -3.6891    0.1614 C   0  0  0  0  0  0
    2.2122   -5.0015   -0.3313 C   0  0  0  0  0  0
    3.1200   -5.2800   -1.3678 C   0  0  0  0  0  0
    3.9017   -4.2446   -1.9116 C   0  0  0  0  0  0
    3.7828   -2.9261   -1.4259 C   0  0  0  0  0  0
    4.5666   -1.9603   -1.9986 O   0  5  0  0  0  0
   -0.7520   -0.0689    2.0339 N   0  0  0  0  0  0
   -1.7272   -0.6598    1.4629 C   0  0  0  0  0  0
   -2.0826   -0.7119    0.0231 C   0  0  0  0  0  0
   -1.1827   -1.2789   -0.9084 C   0  0  0  0  0  0
   -1.5109   -1.3505   -2.2751 C   0  0  0  0  0  0
   -2.7512   -0.8635   -2.7254 C   0  0  0  0  0  0
   -3.6625   -0.3107   -1.8067 C   0  0  0  0  0  0
   -3.3362   -0.2369   -0.4372 C   0  0  0  0  0  0
   -4.2478    0.3063    0.4252 O   0  0  0  0  0  0
    0.5972    2.9314    1.2188 H   0  0  0  0  0  0
    0.0827    2.3801    2.8108 H   0  0  0  0  0  0
   -1.0968    2.5618    1.5134 H   0  0  0  0  0  0
    2.3219    1.0545    1.1211 H   0  0  0  0  0  0
    1.8273    0.3618    2.6631 H   0  0  0  0  0  0
    3.3033   -0.4692   -0.3125 H   0  0  0  0  0  0
    1.3775   -3.5089    0.9560 H   0  0  0  0  0  0
    1.6102   -5.7951    0.0862 H   0  0  0  0  0  0
    3.2168   -6.2866   -1.7471 H   0  0  0  0  0  0
    4.5964   -4.4663   -2.7088 H   0  0  0  0  0  0
   -2.4176   -1.2157    2.1026 H   0  0  0  0  0  0
   -0.2309   -1.6668   -0.5785 H   0  0  0  0  0  0
   -0.8118   -1.7814   -2.9765 H   0  0  0  0  0  0
   -3.0055   -0.9176   -3.7737 H   0  0  0  0  0  0
   -4.6158    0.0574   -2.1573 H   0  0  0  0  0  0
   -5.0420    0.5896   -0.0020 H   0  0  0  0  0  0
    1.3632   -1.7421    1.5126 H   0  0  0  0  0  0
  1  2  1  0  0  0
  1 23  1  0  0  0
  1 24  1  0  0  0
  1 25  1  0  0  0
  2  3  1  0  0  0
  2  4  1  0  0  0
  2 14  1  0  0  0
  4  5  1  0  0  0
  4 26  1  0  0  0
  4 27  1  0  0  0
  5  6  2  0  0  0
  5 39  1  0  0  0
  6  7  1  0  0  0
  6 28  1  0  0  0
  7 12  2  0  0  0
  7  8  1  0  0  0
  8  9  2  0  0  0
  8 29  1  0  0  0
  9 10  1  0  0  0
  9 30  1  0  0  0
 10 11  2  0  0  0
 10 31  1  0  0  0
 11 12  1  0  0  0
 11 32  1  0  0  0
 12 13  1  0  0  0
 14 15  2  0  0  0
 15 16  1  0  0  0
 15 33  1  0  0  0
 16 21  2  0  0  0
 16 17  1  0  0  0
 17 18  2  0  0  0
 17 34  1  0  0  0
 18 19  1  0  0  0
 18 35  1  0  0  0
 19 20  2  0  0  0
 19 36  1  0  0  0
 20 21  1  0  0  0
 20 37  1  0  0  0
 21 22  1  0  0  0
 22 38  1  0  0  0
M  CHG  2   5   1  13  -1
M  END
> <s_m_entry_id>
76

> <s_m_entry_name>
biosynth_p1.0.sdf.69

> <s_m_Source_Path>
/Users/Sebastito/Downloads

> <s_m_Source_File>
biosynth_p1.0.sdf.gz

> <i_m_Source_File_Index>
69

> <chiral flag>
1

> <version>
0

> <i_m_ct_enhanced_stereo_status>
0

> <s_m_source_file>
ligprep_vs.maegz

> <i_m_source_file_index>
69

> <i_lp_mmshare_version>
37011

> <r_epik_Ionization_Penalty>
2.00906

> <r_epik_Ionization_Penalty_Charging>
1.82704

> <r_epik_Ionization_Penalty_Neutral>
0.182024

> <r_epik_State_Penalty>
2.22423

> <r_epik_Charging_Adjusted_Penalty>
4.05126

> <i_epik_Tot_Q>
0

> <i_epik_Tot_abs_Q>
2

> <s_epik_Chemistry_Notes>
This compound has an imine and may undergo hydrolysis.

> <i_f3d_flags>
0

> <s_lp_Force_Field>
OPLS_2005

> <r_lp_Energy>
26.2672

> <b_lp_Chiralities_Consistent>
1

> <s_lp_Variant>
ZINC18067717-4

$$$$
ZINC18067717
                    3D
 Structure written by MMmdl.
 39 40  0  0  1  0            999 V2000
   -0.1054    1.6999    0.4056 C   0  0  0  0  0  0
    0.0365    0.2587   -0.1263 C   0  0  1  0  0  0
   -0.4512    0.1943   -1.0992 H   0  0  0  0  0  0
    1.5113   -0.1253   -0.3333 C   0  0  0  0  0  0
    2.1448    0.6339   -1.4239 N   0  3  0  0  0  0
    3.2190    1.3397   -1.2949 C   0  0  0  0  0  0
    3.7827    2.1006   -2.4222 C   0  0  0  0  0  0
    3.1232    2.1285   -3.6757 C   0  0  0  0  0  0
    3.6614    2.8606   -4.7511 C   0  0  0  0  0  0
    4.8632    3.5725   -4.5877 C   0  0  0  0  0  0
    5.5275    3.5520   -3.3477 C   0  0  0  0  0  0
    4.9959    2.8221   -2.2649 C   0  0  0  0  0  0
    5.6783    2.8338   -1.0790 O   0  0  0  0  0  0
   -0.5461   -0.6825    0.8167 N   0  0  0  0  0  0
   -1.8044   -0.8853    0.8612 C   0  0  0  0  0  0
   -2.8609   -0.3214   -0.0159 C   0  0  0  0  0  0
   -2.9285   -0.7251   -1.3690 C   0  0  0  0  0  0
   -3.9253   -0.2173   -2.2233 C   0  0  0  0  0  0
   -4.8727    0.6978   -1.7303 C   0  0  0  0  0  0
   -4.8228    1.1005   -0.3832 C   0  0  0  0  0  0
   -3.8263    0.5948    0.4764 C   0  0  0  0  0  0
   -3.8150    1.0179    1.7774 O   0  5  0  0  0  0
    0.3387    2.4216   -0.2800 H   0  0  0  0  0  0
    0.3862    1.8158    1.3722 H   0  0  0  0  0  0
   -1.1508    1.9826    0.5312 H   0  0  0  0  0  0
    2.0916    0.0222    0.5795 H   0  0  0  0  0  0
    1.5964   -1.1759   -0.6134 H   0  0  0  0  0  0
    3.7187    1.3764   -0.3339 H   0  0  0  0  0  0
    2.1979    1.5939   -3.8325 H   0  0  0  0  0  0
    3.1506    2.8764   -5.7027 H   0  0  0  0  0  0
    5.2757    4.1347   -5.4130 H   0  0  0  0  0  0
    6.4503    4.1015   -3.2294 H   0  0  0  0  0  0
    6.4673    3.3534   -1.1081 H   0  0  0  0  0  0
   -2.1842   -1.5522    1.6394 H   0  0  0  0  0  0
   -2.2111   -1.4322   -1.7598 H   0  0  0  0  0  0
   -3.9645   -0.5324   -3.2554 H   0  0  0  0  0  0
   -5.6392    1.0887   -2.3830 H   0  0  0  0  0  0
   -5.5548    1.8017   -0.0090 H   0  0  0  0  0  0
    1.6809    0.6032   -2.3263 H   0  0  0  0  0  0
  1  2  1  0  0  0
  1 23  1  0  0  0
  1 24  1  0  0  0
  1 25  1  0  0  0
  2  3  1  0  0  0
  2  4  1  0  0  0
  2 14  1  0  0  0
  4  5  1  0  0  0
  4 26  1  0  0  0
  4 27  1  0  0  0
  5  6  2  0  0  0
  5 39  1  0  0  0
  6  7  1  0  0  0
  6 28  1  0  0  0
  7 12  2  0  0  0
  7  8  1  0  0  0
  8  9  2  0  0  0
  8 29  1  0  0  0
  9 10  1  0  0  0
  9 30  1  0  0  0
 10 11  2  0  0  0
 10 31  1  0  0  0
 11 12  1  0  0  0
 11 32  1  0  0  0
 12 13  1  0  0  0
 13 33  1  0  0  0
 14 15  2  0  0  0
 15 16  1  0  0  0
 15 34  1  0  0  0
 16 21  2  0  0  0
 16 17  1  0  0  0
 17 18  2  0  0  0
 17 35  1  0  0  0
 18 19  1  0  0  0
 18 36  1  0  0  0
 19 20  2  0  0  0
 19 37  1  0  0  0
 20 21  1  0  0  0
 20 38  1  0  0  0
 21 22  1  0  0  0
M  CHG  2   5   1  22  -1
M  END
> <s_m_entry_id>
76

> <s_m_entry_name>
biosynth_p1.0.sdf.69

> <s_m_Source_Path>
/Users/Sebastito/Downloads

> <s_m_Source_File>
biosynth_p1.0.sdf.gz

> <i_m_Source_File_Index>
69

> <chiral flag>
1

> <version>
0

> <i_m_ct_enhanced_stereo_status>
0

> <s_m_source_file>
ligprep_vs.maegz

> <i_m_source_file_index>
69

> <i_lp_mmshare_version>
37011

> <r_epik_Ionization_Penalty>
2.29177

> <r_epik_Ionization_Penalty_Charging>
2.09927

> <r_epik_Ionization_Penalty_Neutral>
0.1925

> <r_epik_State_Penalty>
2.44344

> <r_epik_Charging_Adjusted_Penalty>
4.54271

> <i_epik_Tot_Q>
0

> <i_epik_Tot_abs_Q>
2

> <s_epik_Chemistry_Notes>
This compound has an imine and may undergo hydrolysis.

> <i_f3d_flags>
0

> <s_lp_Force_Field>
OPLS_2005

> <r_lp_Energy>
26.6231

> <b_lp_Chiralities_Consistent>
1

> <s_lp_Variant>
ZINC18067717-5

$$$$
ZINC18067717
                    3D
 Structure written by MMmdl.
 39 40  0  0  1  0            999 V2000
   -0.0949    1.4248   -0.5088 C   0  0  0  0  0  0
    0.2407   -0.0380   -0.1798 C   0  0  1  0  0  0
   -0.0019   -0.6260   -1.0639 H   0  0  0  0  0  0
    1.7369   -0.2602    0.1156 C   0  0  0  0  0  0
    2.1393    0.4421    1.3183 N   0  0  0  0  0  0
    3.3042    0.2022    1.7605 C   0  0  0  0  0  0
    3.8881    0.8048    2.9857 C   0  0  0  0  0  0
    3.1300    1.7170    3.7592 C   0  0  0  0  0  0
    3.6631    2.2925    4.9280 C   0  0  0  0  0  0
    4.9656    1.9646    5.3422 C   0  0  0  0  0  0
    5.7329    1.0616    4.5847 C   0  0  0  0  0  0
    5.2033    0.4822    3.4133 C   0  0  0  0  0  0
    5.9894   -0.3909    2.7134 O   0  0  0  0  0  0
   -0.5984   -0.5315    0.9362 N   0  3  0  0  0  0
   -1.5345   -1.4243    0.8853 C   0  0  0  0  0  0
   -1.9153   -2.1070   -0.3553 C   0  0  0  0  0  0
   -3.1118   -1.7133   -0.9909 C   0  0  0  0  0  0
   -3.5205   -2.3381   -2.1845 C   0  0  0  0  0  0
   -2.7356   -3.3620   -2.7469 C   0  0  0  0  0  0
   -1.5407   -3.7602   -2.1175 C   0  0  0  0  0  0
   -1.1225   -3.1394   -0.9226 C   0  0  0  0  0  0
    0.0458   -3.5577   -0.3445 O   0  5  0  0  0  0
    0.5035    1.7847   -1.3460 H   0  0  0  0  0  0
    0.0909    2.0817    0.3414 H   0  0  0  0  0  0
   -1.1443    1.5302   -0.7852 H   0  0  0  0  0  0
    1.9215   -1.3328    0.2125 H   0  0  0  0  0  0
    2.3278    0.0804   -0.7369 H   0  0  0  0  0  0
    3.9476   -0.4997    1.2217 H   0  0  0  0  0  0
    2.1258    1.9856    3.4649 H   0  0  0  0  0  0
    3.0703    2.9850    5.5073 H   0  0  0  0  0  0
    5.3755    2.4047    6.2392 H   0  0  0  0  0  0
    6.7334    0.8130    4.9073 H   0  0  0  0  0  0
    6.8369   -0.5256    3.1091 H   0  0  0  0  0  0
   -2.0701   -1.6794    1.7911 H   0  0  0  0  0  0
   -3.7222   -0.9286   -0.5678 H   0  0  0  0  0  0
   -4.4366   -2.0320   -2.6677 H   0  0  0  0  0  0
   -3.0495   -3.8433   -3.6615 H   0  0  0  0  0  0
   -0.9440   -4.5468   -2.5564 H   0  0  0  0  0  0
   -0.3843   -0.1306    1.8439 H   0  0  0  0  0  0
  1  2  1  0  0  0
  1 23  1  0  0  0
  1 24  1  0  0  0
  1 25  1  0  0  0
  2  3  1  0  0  0
  2  4  1  0  0  0
  2 14  1  0  0  0
  4  5  1  0  0  0
  4 26  1  0  0  0
  4 27  1  0  0  0
  5  6  2  0  0  0
  6  7  1  0  0  0
  6 28  1  0  0  0
  7 12  2  0  0  0
  7  8  1  0  0  0
  8  9  2  0  0  0
  8 29  1  0  0  0
  9 10  1  0  0  0
  9 30  1  0  0  0
 10 11  2  0  0  0
 10 31  1  0  0  0
 11 12  1  0  0  0
 11 32  1  0  0  0
 12 13  1  0  0  0
 13 33  1  0  0  0
 14 15  2  0  0  0
 14 39  1  0  0  0
 15 16  1  0  0  0
 15 34  1  0  0  0
 16 21  2  0  0  0
 16 17  1  0  0  0
 17 18  2  0  0  0
 17 35  1  0  0  0
 18 19  1  0  0  0
 18 36  1  0  0  0
 19 20  2  0  0  0
 19 37  1  0  0  0
 20 21  1  0  0  0
 20 38  1  0  0  0
 21 22  1  0  0  0
M  CHG  2  14   1  22  -1
M  END
> <s_m_entry_id>
76

> <s_m_entry_name>
biosynth_p1.0.sdf.69

> <s_m_Source_Path>
/Users/Sebastito/Downloads

> <s_m_Source_File>
biosynth_p1.0.sdf.gz

> <i_m_Source_File_Index>
69

> <chiral flag>
1

> <version>
0

> <i_m_ct_enhanced_stereo_status>
0

> <s_m_source_file>
ligprep_vs.maegz

> <i_m_source_file_index>
69

> <i_lp_mmshare_version>
37011

> <r_epik_Ionization_Penalty>
2.0798

> <r_epik_Ionization_Penalty_Charging>
1.82959

> <r_epik_Ionization_Penalty_Neutral>
0.25021

> <r_epik_State_Penalty>
2.61866

> <r_epik_Charging_Adjusted_Penalty>
4.44825

> <i_epik_Tot_Q>
0

> <i_epik_Tot_abs_Q>
2

> <s_epik_Chemistry_Notes>
This compound has an imine and may undergo hydrolysis.

> <i_f3d_flags>
0

> <s_lp_Force_Field>
OPLS_2005

> <r_lp_Energy>
21.4494

> <b_lp_Chiralities_Consistent>
1

> <s_lp_Variant>
ZINC18067717-6

$$$$
ZINC19365587
                    3D
 Structure written by MMmdl.
 43 44  0  0  1  0            999 V2000
   -3.3445   -3.1528   -4.4390 C   0  0  0  0  0  0
   -3.4594   -1.7507   -4.5085 C   0  0  0  0  0  0
   -3.0281   -0.9538   -3.4301 C   0  0  0  0  0  0
   -2.4798   -1.5572   -2.2788 C   0  0  0  0  0  0
   -2.3646   -2.9619   -2.2125 C   0  0  0  0  0  0
   -2.7975   -3.7581   -3.2909 C   0  0  0  0  0  0
   -2.0075   -0.6971   -1.1247 C   0  0  0  0  0  0
   -0.6123   -0.2648   -1.3453 N   0  3  0  0  0  0
   -0.0324    0.5893   -0.2801 C   0  0  1  0  0  0
   -0.3604    0.1594    0.6685 H   0  0  0  0  0  0
    1.5233    0.4910   -0.2998 C   0  0  1  0  0  0
    1.7591   -0.5736   -0.2595 H   0  0  0  0  0  0
    2.1524    1.0144   -1.6104 C   0  0  0  0  0  0
    2.1922    0.2076   -2.5654 O   0  0  0  0  0  0
    2.5700    2.1931   -1.6446 O   0  5  0  0  0  0
    2.1003    1.0921    0.9209 N   0  0  0  0  0  0
    3.5147    0.8023    1.1175 C   0  0  0  0  0  0
    3.9979    1.2859    2.4698 C   0  0  0  0  0  0
    3.9127    0.4427    3.5978 C   0  0  0  0  0  0
    4.3502    0.8991    4.8566 C   0  0  0  0  0  0
    4.8720    2.2002    4.9923 C   0  0  0  0  0  0
    4.9549    3.0457    3.8689 C   0  0  0  0  0  0
    4.5173    2.5901    2.6100 C   0  0  0  0  0  0
   -0.5974    2.0289   -0.3649 C   0  0  0  0  0  0
   -0.7672    2.6314    0.7181 O   0  0  0  0  0  0
   -0.8830    2.4967   -1.4916 O   0  5  0  0  0  0
   -3.6752   -3.7636   -5.2663 H   0  0  0  0  0  0
   -3.8772   -1.2857   -5.3895 H   0  0  0  0  0  0
   -3.1156    0.1217   -3.4905 H   0  0  0  0  0  0
   -1.9431   -3.4328   -1.3364 H   0  0  0  0  0  0
   -2.7085   -4.8332   -3.2379 H   0  0  0  0  0  0
   -2.6641    0.1683   -1.0272 H   0  0  0  0  0  0
   -2.0769   -1.2595   -0.1927 H   0  0  0  0  0  0
    1.5776    0.8550    1.7510 H   0  0  0  0  0  0
    3.6806   -0.2740    1.0519 H   0  0  0  0  0  0
    4.1209    1.2641    0.3378 H   0  0  0  0  0  0
    3.5087   -0.5544    3.5006 H   0  0  0  0  0  0
    4.2834    0.2515    5.7184 H   0  0  0  0  0  0
    5.2057    2.5500    5.9582 H   0  0  0  0  0  0
    5.3511    4.0451    3.9721 H   0  0  0  0  0  0
    4.5772    3.2443    1.7521 H   0  0  0  0  0  0
   -0.0389   -1.0916   -1.4255 H   0  0  0  0  0  0
   -0.5554    0.2485   -2.2139 H   0  0  0  0  0  0
  1  6  2  0  0  0
  1  2  1  0  0  0
  1 27  1  0  0  0
  2  3  2  0  0  0
  2 28  1  0  0  0
  3  4  1  0  0  0
  3 29  1  0  0  0
  4  5  2  0  0  0
  4  7  1  0  0  0
  5  6  1  0  0  0
  5 30  1  0  0  0
  6 31  1  0  0  0
  7  8  1  0  0  0
  7 32  1  0  0  0
  7 33  1  0  0  0
  8  9  1  0  0  0
  8 42  1  0  0  0
  8 43  1  0  0  0
  9 10  1  0  0  0
  9 11  1  0  0  0
  9 24  1  0  0  0
 11 12  1  0  0  0
 11 13  1  0  0  0
 11 16  1  0  0  0
 13 14  2  0  0  0
 13 15  1  0  0  0
 16 17  1  0  0  0
 16 34  1  0  0  0
 17 18  1  0  0  0
 17 35  1  0  0  0
 17 36  1  0  0  0
 18 23  2  0  0  0
 18 19  1  0  0  0
 19 20  2  0  0  0
 19 37  1  0  0  0
 20 21  1  0  0  0
 20 38  1  0  0  0
 21 22  2  0  0  0
 21 39  1  0  0  0
 22 23  1  0  0  0
 22 40  1  0  0  0
 23 41  1  0  0  0
 24 25  2  0  0  0
 24 26  1  0  0  0
M  CHG  3   8   1  15  -1  26  -1
M  END
> <s_m_entry_id>
77

> <s_m_entry_name>
biosynth_p1.0.sdf.70

> <s_m_Source_Path>
/Users/Sebastito/Downloads

> <s_m_Source_File>
biosynth_p1.0.sdf.gz

> <i_m_Source_File_Index>
70

> <chiral flag>
1

> <version>
0

> <i_m_ct_enhanced_stereo_status>
0

> <s_m_source_file>
ligprep_vs.maegz

> <i_m_source_file_index>
70

> <i_lp_mmshare_version>
37011

> <r_epik_Ionization_Penalty>
0.0231748

> <r_epik_Ionization_Penalty_Charging>
0.00798059

> <r_epik_Ionization_Penalty_Neutral>
0.0151942

> <r_epik_State_Penalty>
0.017203

> <r_epik_Charging_Adjusted_Penalty>
0.0251836

> <i_epik_Tot_Q>
-1

> <i_epik_Tot_abs_Q>
3

> <i_f3d_flags>
0

> <s_lp_Force_Field>
OPLS_2005

> <r_lp_Energy>
-1.53199

> <b_lp_Chiralities_Consistent>
1

> <s_lp_Variant>
ZINC19365587-1

$$$$
ZINC19365587
                    3D
 Structure written by MMmdl.
 44 45  0  0  1  0            999 V2000
   -2.6015   -3.8425   -4.4934 C   0  0  0  0  0  0
   -1.9745   -4.4532   -3.3900 C   0  0  0  0  0  0
   -1.7149   -3.7060   -2.2245 C   0  0  0  0  0  0
   -2.0826   -2.3453   -2.1592 C   0  0  0  0  0  0
   -2.7106   -1.7364   -3.2663 C   0  0  0  0  0  0
   -2.9694   -2.4845   -4.4314 C   0  0  0  0  0  0
   -1.7931   -1.5382   -0.9105 C   0  0  0  0  0  0
   -0.4603   -0.9078   -1.0107 N   0  3  0  0  0  0
   -0.0218   -0.1583    0.1904 C   0  0  1  0  0  0
   -0.3185   -0.7261    1.0754 H   0  0  0  0  0  0
    1.5337   -0.0113    0.1987 C   0  0  1  0  0  0
    1.8397    0.4533   -0.7417 H   0  0  0  0  0  0
    2.0474    0.8363    1.3818 C   0  0  0  0  0  0
    2.7591    1.8263    1.1053 O   0  0  0  0  0  0
    1.7612    0.4531    2.5389 O   0  5  0  0  0  0
    2.1766   -1.3438    0.2885 N   0  3  0  0  0  0
    3.5745   -1.4034   -0.1865 C   0  0  0  0  0  0
    4.0925   -2.8247   -0.1072 C   0  0  0  0  0  0
    4.6909   -3.2938    1.0813 C   0  0  0  0  0  0
    5.1655   -4.6176    1.1590 C   0  0  0  0  0  0
    5.0429   -5.4764    0.0494 C   0  0  0  0  0  0
    4.4460   -5.0112   -1.1384 C   0  0  0  0  0  0
    3.9707   -3.6875   -1.2171 C   0  0  0  0  0  0
   -0.7502    1.2023    0.1851 C   0  0  0  0  0  0
   -1.5739    1.4095    1.1025 O   0  0  0  0  0  0
   -0.5079    1.9878   -0.7591 O   0  5  0  0  0  0
   -2.8010   -4.4157   -5.3870 H   0  0  0  0  0  0
   -1.6928   -5.4948   -3.4383 H   0  0  0  0  0  0
   -1.2328   -4.1807   -1.3824 H   0  0  0  0  0  0
   -2.9938   -0.6944   -3.2262 H   0  0  0  0  0  0
   -3.4500   -2.0166   -5.2781 H   0  0  0  0  0  0
   -2.5652   -0.7792   -0.7783 H   0  0  0  0  0  0
   -1.8307   -2.1909   -0.0375 H   0  0  0  0  0  0
    2.1452   -1.6402    1.2541 H   0  0  0  0  0  0
    3.6312   -1.0504   -1.2170 H   0  0  0  0  0  0
    4.2097   -0.7504    0.4134 H   0  0  0  0  0  0
    4.7865   -2.6405    1.9367 H   0  0  0  0  0  0
    5.6241   -4.9743    2.0698 H   0  0  0  0  0  0
    5.4077   -6.4913    0.1090 H   0  0  0  0  0  0
    4.3539   -5.6700   -1.9894 H   0  0  0  0  0  0
    3.5135   -3.3381   -2.1314 H   0  0  0  0  0  0
    0.2063   -1.6430   -1.1889 H   0  0  0  0  0  0
   -0.4566   -0.2697   -1.7944 H   0  0  0  0  0  0
    1.6432   -1.9948   -0.2669 H   0  0  0  0  0  0
  1  6  2  0  0  0
  1  2  1  0  0  0
  1 27  1  0  0  0
  2  3  2  0  0  0
  2 28  1  0  0  0
  3  4  1  0  0  0
  3 29  1  0  0  0
  4  5  2  0  0  0
  4  7  1  0  0  0
  5  6  1  0  0  0
  5 30  1  0  0  0
  6 31  1  0  0  0
  7  8  1  0  0  0
  7 32  1  0  0  0
  7 33  1  0  0  0
  8  9  1  0  0  0
  8 42  1  0  0  0
  8 43  1  0  0  0
  9 10  1  0  0  0
  9 11  1  0  0  0
  9 24  1  0  0  0
 11 12  1  0  0  0
 11 13  1  0  0  0
 11 16  1  0  0  0
 13 14  2  0  0  0
 13 15  1  0  0  0
 16 17  1  0  0  0
 16 34  1  0  0  0
 16 44  1  0  0  0
 17 18  1  0  0  0
 17 35  1  0  0  0
 17 36  1  0  0  0
 18 23  2  0  0  0
 18 19  1  0  0  0
 19 20  2  0  0  0
 19 37  1  0  0  0
 20 21  1  0  0  0
 20 38  1  0  0  0
 21 22  2  0  0  0
 21 39  1  0  0  0
 22 23  1  0  0  0
 22 40  1  0  0  0
 23 41  1  0  0  0
 24 25  2  0  0  0
 24 26  1  0  0  0
M  CHG  4   8   1  15  -1  16   1  26  -1
M  END
> <s_m_entry_id>
77

> <s_m_entry_name>
biosynth_p1.0.sdf.70

> <s_m_Source_Path>
/Users/Sebastito/Downloads

> <s_m_Source_File>
biosynth_p1.0.sdf.gz

> <i_m_Source_File_Index>
70

> <chiral flag>
1

> <version>
0

> <i_m_ct_enhanced_stereo_status>
0

> <s_m_source_file>
ligprep_vs.maegz

> <i_m_source_file_index>
70

> <i_lp_mmshare_version>
37011

> <r_epik_Ionization_Penalty>
2.1781

> <r_epik_Ionization_Penalty_Charging>
2.1781

> <r_epik_Ionization_Penalty_Neutral>
0

> <r_epik_State_Penalty>
2.3252

> <r_epik_Charging_Adjusted_Penalty>
4.5033

> <i_epik_Tot_Q>
0

> <i_epik_Tot_abs_Q>
4

> <i_f3d_flags>
0

> <s_lp_Force_Field>
OPLS_2005

> <r_lp_Energy>
-1.65726

> <b_lp_Chiralities_Consistent>
1

> <s_lp_Variant>
ZINC19365587-2

$$$$
ZINC08579359
                    3D
 Structure written by MMmdl.
 16 17  0  0  1  0            999 V2000
   -4.0672   -0.0879    0.0000 C   0  0  0  0  0  0
   -2.6762    0.1891    0.0000 C   0  0  0  0  0  0
   -1.9125    1.4657   -0.0000 C   0  0  0  0  0  0
   -2.4545    2.5690    0.0000 O   0  0  0  0  0  0
   -0.5759    1.2576   -0.0000 N   0  0  0  0  0  0
    0.0123   -0.0311   -0.0000 C   0  0  0  0  0  0
   -0.6561   -1.1576    0.0000 N   0  0  0  0  0  0
   -2.0332   -1.0021    0.0000 C   0  0  0  0  0  0
   -3.0174   -1.9623    0.0000 N   0  0  0  0  0  0
   -4.2626   -1.4089    0.0000 N   0  0  0  0  0  0
   -2.8726   -2.9620    0.0000 H   0  0  0  0  0  0
    1.3900    0.0447   -0.0000 N   0  0  0  0  0  0
   -4.9093    0.5883    0.0000 H   0  0  0  0  0  0
    1.9890   -0.7685   -0.0000 H   0  0  0  0  0  0
    1.9049    0.9133   -0.0001 H   0  0  0  0  0  0
    0.0257    2.0680   -0.0000 H   0  0  0  0  0  0
  1 13  1  0  0  0
  1  2  1  0  0  0
  1 10  2  0  0  0
  2  3  1  0  0  0
  2  8  2  0  0  0
  3  4  2  0  0  0
  3  5  1  0  0  0
  5  6  1  0  0  0
  5 16  1  0  0  0
  6  7  2  0  0  0
  6 12  1  0  0  0
  7  8  1  0  0  0
  8  9  1  0  0  0
  9 11  1  0  0  0
  9 10  1  0  0  0
 12 14  1  0  0  0
 12 15  1  0  0  0
M  END
> <s_m_entry_id>
78

> <s_m_entry_name>
biosynth_p1.0.sdf.71

> <s_m_Source_Path>
/Users/Sebastito/Downloads

> <s_m_Source_File>
biosynth_p1.0.sdf.gz

> <i_m_Source_File_Index>
71

> <chiral flag>
0

> <version>
0

> <i_m_ct_enhanced_stereo_status>
0

> <s_m_source_file>
ligprep_vs.maegz

> <i_m_source_file_index>
71

> <i_lp_mmshare_version>
37011

> <i_f3d_flags>
0

> <r_epik_Ionization_Penalty>
0.000656313

> <r_epik_Ionization_Penalty_Charging>
0.000647703

> <r_epik_Ionization_Penalty_Neutral>
8.60904e-06

> <r_epik_State_Penalty>
0.000410048

> <r_epik_Charging_Adjusted_Penalty>
0.00105775

> <i_epik_Tot_Q>
0

> <i_epik_Tot_abs_Q>
0

> <s_lp_Force_Field>
OPLS_2005

> <r_lp_Energy>
16.9301

> <b_lp_Chiralities_Consistent>
1

> <s_lp_Variant>
ZINC08579359-1

$$$$
ZINC22114926
                    3D
 Structure written by MMmdl.
 15 15  0  0  1  0            999 V2000
   -2.1056    1.2268   -0.0000 C   0  0  0  0  0  0
   -0.6979    1.2190    0.0000 C   0  0  0  0  0  0
    0.0171   -0.0010   -0.0000 C   0  0  0  0  0  0
   -0.7045   -1.2246   -0.0000 C   0  0  0  0  0  0
   -2.1146   -1.2095   -0.0000 C   0  0  0  0  0  0
   -2.8169    0.0116   -0.0000 C   0  0  0  0  0  0
   -4.2700    0.0169   -0.0000 C   0  0  0  0  0  0
   -5.4274    0.0218   -0.0000 N   0  0  0  0  0  0
   -0.0751   -2.4396   -0.0000 O   0  5  0  0  0  0
    1.5047    0.0331   -0.0000 C   0  0  0  0  0  0
    2.1772    1.0642    0.0000 O   0  0  0  0  0  0
   -2.6327    2.1701    0.0000 H   0  0  0  0  0  0
   -0.1731    2.1633    0.0000 H   0  0  0  0  0  0
   -2.6586   -2.1438   -0.0000 H   0  0  0  0  0  0
    1.9865   -0.9444   -0.0000 H   0  0  0  0  0  0
  1  6  2  0  0  0
  1  2  1  0  0  0
  1 12  1  0  0  0
  2  3  2  0  0  0
  2 13  1  0  0  0
  3  4  1  0  0  0
  3 10  1  0  0  0
  4  5  2  0  0  0
  4  9  1  0  0  0
  5  6  1  0  0  0
  5 14  1  0  0  0
  6  7  1  0  0  0
  7  8  3  0  0  0
 10 11  2  0  0  0
 10 15  1  0  0  0
M  CHG  1   9  -1
M  END
> <s_m_entry_id>
79

> <s_m_entry_name>
biosynth_p1.0.sdf.72

> <s_m_Source_Path>
/Users/Sebastito/Downloads

> <s_m_Source_File>
biosynth_p1.0.sdf.gz

> <i_m_Source_File_Index>
72

> <chiral flag>
0

> <version>
0

> <i_m_ct_enhanced_stereo_status>
0

> <s_m_source_file>
ligprep_vs.maegz

> <i_m_source_file_index>
72

> <i_lp_mmshare_version>
37011

> <i_f3d_flags>
0

> <r_epik_Ionization_Penalty>
0.264162

> <r_epik_Ionization_Penalty_Charging>
0.264162

> <r_epik_Ionization_Penalty_Neutral>
0

> <r_epik_State_Penalty>
0.256021

> <r_epik_Charging_Adjusted_Penalty>
0.520183

> <i_epik_Tot_Q>
-1

> <i_epik_Tot_abs_Q>
1

> <s_lp_Force_Field>
OPLS_2005

> <r_lp_Energy>
7.42044

> <b_lp_Chiralities_Consistent>
1

> <s_lp_Variant>
ZINC22114926-1

$$$$
ZINC22114926
                    3D
 Structure written by MMmdl.
 16 16  0  0  1  0            999 V2000
   -2.0991    1.2083    0.0000 C   0  0  0  0  0  0
   -0.6913    1.2094    0.0000 C   0  0  0  0  0  0
    0.0288   -0.0072   -0.0000 C   0  0  0  0  0  0
   -0.6839   -1.2334   -0.0000 C   0  0  0  0  0  0
   -2.0939   -1.2288   -0.0000 C   0  0  0  0  0  0
   -2.8033   -0.0112   -0.0000 C   0  0  0  0  0  0
   -4.2565   -0.0133   -0.0000 C   0  0  0  0  0  0
   -5.4134   -0.0149   -0.0000 N   0  0  0  0  0  0
   -0.0377   -2.4385   -0.0000 O   0  0  0  0  0  0
    1.5145    0.0229   -0.0000 C   0  0  0  0  0  0
    2.1891    1.0520    0.0000 O   0  0  0  0  0  0
   -2.6330    2.1479    0.0000 H   0  0  0  0  0  0
   -0.1712    2.1566    0.0000 H   0  0  0  0  0  0
   -2.6308   -2.1669   -0.0000 H   0  0  0  0  0  0
    1.9916   -0.9569   -0.0000 H   0  0  0  0  0  0
   -0.6278   -3.1767   -0.0000 H   0  0  0  0  0  0
  1  6  2  0  0  0
  1  2  1  0  0  0
  1 12  1  0  0  0
  2  3  2  0  0  0
  2 13  1  0  0  0
  3  4  1  0  0  0
  3 10  1  0  0  0
  4  5  2  0  0  0
  4  9  1  0  0  0
  5  6  1  0  0  0
  5 14  1  0  0  0
  6  7  1  0  0  0
  7  8  3  0  0  0
  9 16  1  0  0  0
 10 11  2  0  0  0
 10 15  1  0  0  0
M  END
> <s_m_entry_id>
79

> <s_m_entry_name>
biosynth_p1.0.sdf.72

> <s_m_Source_Path>
/Users/Sebastito/Downloads

> <s_m_Source_File>
biosynth_p1.0.sdf.gz

> <i_m_Source_File_Index>
72

> <chiral flag>
0

> <version>
0

> <i_m_ct_enhanced_stereo_status>
0

> <s_m_source_file>
ligprep_vs.maegz

> <i_m_source_file_index>
72

> <i_lp_mmshare_version>
37011

> <i_f3d_flags>
0

> <r_epik_Ionization_Penalty>
0.60577

> <r_epik_Ionization_Penalty_Charging>
0

> <r_epik_Ionization_Penalty_Neutral>
0.60577

> <r_epik_State_Penalty>
0.620544

> <r_epik_Charging_Adjusted_Penalty>
0.620544

> <i_epik_Tot_Q>
0

> <i_epik_Tot_abs_Q>
0

> <s_lp_Force_Field>
OPLS_2005

> <r_lp_Energy>
7.44862

> <b_lp_Chiralities_Consistent>
1

> <s_lp_Variant>
ZINC22114926-2

$$$$
ZINC19795961
                    3D
 Structure written by MMmdl.
 53 56  0  0  1  0            999 V2000
   -0.7197   -0.4935   -1.0897 C   0  0  0  0  0  0
   -0.0254   -0.3252    0.2090 N   0  3  0  0  0  0
   -0.4919   -1.2938    1.2319 C   0  0  0  0  0  0
    1.4629   -0.1537    0.1130 C   0  0  1  0  0  0
    1.6854    0.2645   -0.8672 H   0  0  0  0  0  0
    1.8809    0.9385    1.1451 C   0  0  2  0  0  0
    1.3105    0.7557    2.0577 H   0  0  0  0  0  0
    1.4975    2.3590    0.6594 C   0  0  0  0  0  0
    2.4815    3.0161   -0.3500 C   0  0  2  0  0  0
    2.7577    3.9648    0.1146 H   0  0  0  0  0  0
    1.8263    3.4150   -1.6859 C   0  0  1  0  0  0
    0.9578    4.0256   -1.4422 H   0  0  0  0  0  0
    2.7987    4.2177   -2.5366 C   0  0  0  0  0  0
    2.3260    5.2727   -3.3580 C   0  0  0  0  0  0
    3.2277    6.0211   -4.1322 C   0  0  0  0  0  0
    4.5985    5.7272   -4.0962 C   0  0  0  0  0  0
    5.0816    4.6735   -3.2985 C   0  0  0  0  0  0
    4.1835    3.8900   -2.5166 C   0  0  0  0  0  0
    4.6750    2.7420   -1.6740 C   0  0  0  0  0  0
    5.7320    2.1718   -1.9473 O   0  0  0  0  0  0
    3.8314    2.3098   -0.5132 C   0  0  0  0  0  0
    4.2391    1.3672    0.3757 C   0  0  0  0  0  0
    3.3666    0.8847    1.5461 C   0  0  2  0  0  0
    3.6824   -0.5510    2.0251 C   0  0  0  0  0  0
    4.2822   -0.7079    3.0922 O   0  0  0  0  0  0
    3.2720   -1.6750    1.1382 C   0  0  0  0  0  0
    2.2585   -1.4917    0.1886 C   0  0  0  0  0  0
    1.8290   -2.2451   -0.7191 O   0  5  0  0  0  0
    3.9141   -3.0066    1.1981 C   0  0  0  0  0  0
    3.4395   -4.0539    0.7597 O   0  0  0  0  0  0
    5.1295   -3.0267    1.7579 N   0  0  0  0  0  0
    3.5587    1.7799    2.6304 O   0  0  0  0  0  0
    5.4149    0.7146    0.3139 O   0  0  0  0  0  0
    6.4327    4.4625   -3.3041 O   0  0  0  0  0  0
    0.6458    5.6723   -3.4558 Cl  0  0  0  0  0  0
    1.3586    2.2798   -2.3833 O   0  0  0  0  0  0
   -0.5041   -1.4571   -1.5501 H   0  0  0  0  0  0
   -0.4364    0.2921   -1.7892 H   0  0  0  0  0  0
   -1.7988   -0.4293   -0.9494 H   0  0  0  0  0  0
   -0.3241   -2.3249    0.9202 H   0  0  0  0  0  0
   -1.5614   -1.1706    1.4036 H   0  0  0  0  0  0
    0.0141   -1.1405    2.1850 H   0  0  0  0  0  0
    0.4817    2.3608    0.2633 H   0  0  0  0  0  0
    1.4396    3.0070    1.5351 H   0  0  0  0  0  0
    2.8677    6.8269   -4.7551 H   0  0  0  0  0  0
    5.2833    6.3169   -4.6883 H   0  0  0  0  0  0
    5.5293   -2.1730    2.1199 H   0  0  0  0  0  0
    5.6358   -3.8974    1.8249 H   0  0  0  0  0  0
    4.4590    1.7124    2.9109 H   0  0  0  0  0  0
    5.8795    1.0386   -0.4436 H   0  0  0  0  0  0
    6.9014    5.0609   -3.8658 H   0  0  0  0  0  0
    0.9042    2.5714   -3.1591 H   0  0  0  0  0  0
   -0.3451    0.5740    0.5379 H   0  0  0  0  0  0
  1  2  1  0  0  0
  1 37  1  0  0  0
  1 38  1  0  0  0
  1 39  1  0  0  0
  2  3  1  0  0  0
  2  4  1  0  0  0
  2 53  1  0  0  0
  3 40  1  0  0  0
  3 41  1  0  0  0
  3 42  1  0  0  0
  4  5  1  0  0  0
  4 27  1  0  0  0
  4  6  1  0  0  0
  6  7  1  0  0  0
  6 23  1  0  0  0
  6  8  1  0  0  0
  8  9  1  0  0  0
  8 43  1  0  0  0
  8 44  1  0  0  0
  9 10  1  0  0  0
  9 21  1  0  0  0
  9 11  1  0  0  0
 11 12  1  0  0  0
 11 13  1  0  0  0
 11 36  1  0  0  0
 13 18  2  0  0  0
 13 14  1  0  0  0
 14 15  2  0  0  0
 14 35  1  0  0  0
 15 16  1  0  0  0
 15 45  1  0  0  0
 16 17  2  0  0  0
 16 46  1  0  0  0
 17 18  1  0  0  0
 17 34  1  0  0  0
 18 19  1  0  0  0
 19 20  2  0  0  0
 19 21  1  0  0  0
 21 22  2  0  0  0
 22 23  1  0  0  0
 22 33  1  0  0  0
 23 24  1  0  0  0
 23 32  1  0  0  0
 24 25  2  0  0  0
 24 26  1  0  0  0
 26 27  2  0  0  0
 26 29  1  0  0  0
 27 28  1  0  0  0
 29 30  2  0  0  0
 29 31  1  0  0  0
 31 47  1  0  0  0
 31 48  1  0  0  0
 32 49  1  0  0  0
 33 50  1  0  0  0
 34 51  1  0  0  0
 36 52  1  0  0  0
M  CHG  2   2   1  28  -1
M  END
> <s_m_entry_id>
80

> <s_m_entry_name>
biosynth_p1.0.sdf.73

> <s_m_Source_Path>
/Users/Sebastito/Downloads

> <s_m_Source_File>
biosynth_p1.0.sdf.gz

> <i_m_Source_File_Index>
73

> <chiral flag>
1

> <version>
0

> <i_m_ct_enhanced_stereo_status>
0

> <s_m_source_file>
ligprep_vs.maegz

> <i_m_source_file_index>
73

> <i_lp_mmshare_version>
37011

> <r_epik_Ionization_Penalty>
0.198281

> <r_epik_Ionization_Penalty_Charging>
0.126506

> <r_epik_Ionization_Penalty_Neutral>
0.0717754

> <r_epik_State_Penalty>
0.17547

> <r_epik_Charging_Adjusted_Penalty>
0.301976

> <i_epik_Tot_Q>
0

> <i_epik_Tot_abs_Q>
2

> <i_f3d_flags>
0

> <s_lp_Force_Field>
OPLS_2005

> <r_lp_Energy>
50.7834

> <b_lp_Chiralities_Consistent>
1

> <s_lp_Variant>
ZINC19795961-1

$$$$
ZINC19795961
                    3D
 Structure written by MMmdl.
 52 55  0  0  1  0            999 V2000
   -0.4125    1.7407    0.7008 C   0  0  0  0  0  0
   -0.0493    0.4415    0.1402 N   0  0  0  0  0  0
   -0.7930   -0.6174    0.8133 C   0  0  0  0  0  0
    1.4061    0.1885    0.0515 C   0  0  1  0  0  0
    1.5498   -0.8882    0.0005 H   0  0  0  0  0  0
    1.8546    0.7451   -1.3378 C   0  0  2  0  0  0
    1.2887    1.6597   -1.5263 H   0  0  0  0  0  0
    1.5008   -0.2356   -2.4832 C   0  0  0  0  0  0
    2.4837   -1.4206   -2.6922 C   0  0  2  0  0  0
    2.7563   -1.3624   -3.7478 H   0  0  0  0  0  0
    1.8346   -2.8089   -2.5380 C   0  0  1  0  0  0
    0.9575   -2.8210   -3.1836 H   0  0  0  0  0  0
    2.8069   -3.8965   -2.9696 C   0  0  0  0  0  0
    2.3314   -5.0604   -3.6256 C   0  0  0  0  0  0
    3.2332   -6.0558   -4.0364 C   0  0  0  0  0  0
    4.6067   -5.9027   -3.7982 C   0  0  0  0  0  0
    5.0930   -4.7609   -3.1349 C   0  0  0  0  0  0
    4.1956   -3.7439   -2.6953 C   0  0  0  0  0  0
    4.6915   -2.5229   -1.9624 C   0  0  0  0  0  0
    5.7638   -2.5522   -1.3570 O   0  0  0  0  0  0
    3.8334   -1.2928   -1.9820 C   0  0  0  0  0  0
    4.2290   -0.1123   -1.4385 C   0  0  0  0  0  0
    3.3412    1.1454   -1.4082 C   0  0  2  0  0  0
    3.6413    2.0898   -0.2225 C   0  0  0  0  0  0
    4.2067    3.1659   -0.4360 O   0  0  0  0  0  0
    3.2653    1.6112    1.1346 C   0  0  0  0  0  0
    2.2344    0.6738    1.2838 C   0  0  0  0  0  0
    1.8214    0.0543    2.2945 O   0  5  0  0  0  0
    3.9503    2.0787    2.3602 C   0  0  0  0  0  0
    3.5314    1.9596    3.5110 O   0  0  0  0  0  0
    5.1434    2.6520    2.1615 N   0  0  0  0  0  0
    3.5507    1.8522   -2.6215 O   0  0  0  0  0  0
    5.4097    0.0860   -0.8224 O   0  0  0  0  0  0
    6.4465   -4.6802   -2.9566 O   0  0  0  0  0  0
    0.6481   -5.3127   -3.9344 Cl  0  0  0  0  0  0
    1.3856   -3.0234   -1.2168 O   0  0  0  0  0  0
    0.1231    2.5485    0.2025 H   0  0  0  0  0  0
   -0.1942    1.7964    1.7676 H   0  0  0  0  0  0
   -1.4795    1.9221    0.5700 H   0  0  0  0  0  0
   -0.5621   -1.5887    0.3753 H   0  0  0  0  0  0
   -1.8649   -0.4534    0.6990 H   0  0  0  0  0  0
   -0.5773   -0.6616    1.8801 H   0  0  0  0  0  0
    0.4800   -0.5995   -2.3629 H   0  0  0  0  0  0
    1.4702    0.3365   -3.4115 H   0  0  0  0  0  0
    2.8716   -6.9405   -4.5397 H   0  0  0  0  0  0
    5.2909   -6.6711   -4.1279 H   0  0  0  0  0  0
    5.4972    2.7619    1.2223 H   0  0  0  0  0  0
    5.6762    2.9847    2.9514 H   0  0  0  0  0  0
    2.9509    2.5819   -2.6451 H   0  0  0  0  0  0
    5.4134    0.9735   -0.4981 H   0  0  0  0  0  0
    6.9132   -5.4286   -3.2957 H   0  0  0  0  0  0
    0.8968   -3.8316   -1.1920 H   0  0  0  0  0  0
  1  2  1  0  0  0
  1 37  1  0  0  0
  1 38  1  0  0  0
  1 39  1  0  0  0
  2  3  1  0  0  0
  2  4  1  0  0  0
  3 40  1  0  0  0
  3 41  1  0  0  0
  3 42  1  0  0  0
  4  5  1  0  0  0
  4 27  1  0  0  0
  4  6  1  0  0  0
  6  7  1  0  0  0
  6 23  1  0  0  0
  6  8  1  0  0  0
  8  9  1  0  0  0
  8 43  1  0  0  0
  8 44  1  0  0  0
  9 10  1  0  0  0
  9 21  1  0  0  0
  9 11  1  0  0  0
 11 12  1  0  0  0
 11 13  1  0  0  0
 11 36  1  0  0  0
 13 18  2  0  0  0
 13 14  1  0  0  0
 14 15  2  0  0  0
 14 35  1  0  0  0
 15 16  1  0  0  0
 15 45  1  0  0  0
 16 17  2  0  0  0
 16 46  1  0  0  0
 17 18  1  0  0  0
 17 34  1  0  0  0
 18 19  1  0  0  0
 19 20  2  0  0  0
 19 21  1  0  0  0
 21 22  2  0  0  0
 22 23  1  0  0  0
 22 33  1  0  0  0
 23 24  1  0  0  0
 23 32  1  0  0  0
 24 25  2  0  0  0
 24 26  1  0  0  0
 26 27  2  0  0  0
 26 29  1  0  0  0
 27 28  1  0  0  0
 29 30  2  0  0  0
 29 31  1  0  0  0
 31 47  1  0  0  0
 31 48  1  0  0  0
 32 49  1  0  0  0
 33 50  1  0  0  0
 34 51  1  0  0  0
 36 52  1  0  0  0
M  CHG  1  28  -1
M  END
> <s_m_entry_id>
80

> <s_m_entry_name>
biosynth_p1.0.sdf.73

> <s_m_Source_Path>
/Users/Sebastito/Downloads

> <s_m_Source_File>
biosynth_p1.0.sdf.gz

> <i_m_Source_File_Index>
73

> <chiral flag>
1

> <version>
0

> <i_m_ct_enhanced_stereo_status>
0

> <s_m_source_file>
ligprep_vs.maegz

> <i_m_source_file_index>
73

> <i_lp_mmshare_version>
37011

> <r_epik_Ionization_Penalty>
1.03364

> <r_epik_Ionization_Penalty_Charging>
0.00519172

> <r_epik_Ionization_Penalty_Neutral>
1.02845

> <r_epik_State_Penalty>
1.0556

> <r_epik_Charging_Adjusted_Penalty>
1.06079

> <i_epik_Tot_Q>
-1

> <i_epik_Tot_abs_Q>
1

> <i_f3d_flags>
0

> <s_lp_Force_Field>
OPLS_2005

> <r_lp_Energy>
65.4824

> <b_lp_Chiralities_Consistent>
1

> <s_lp_Variant>
ZINC19795961-2

$$$$
ZINC19795961
                    3D
 Structure written by MMmdl.
 52 55  0  0  1  0            999 V2000
   -0.4649    0.5059   -1.1863 C   0  0  0  0  0  0
    0.0127   -0.0980    0.0800 N   0  3  0  0  0  0
   -0.6914   -1.3753    0.3568 C   0  0  0  0  0  0
    1.5113   -0.0971    0.1942 C   0  0  1  0  0  0
    1.8863   -0.1594   -0.8314 H   0  0  0  0  0  0
    2.0141    1.2588    0.7515 C   0  0  2  0  0  0
    1.4940    2.0609    0.2264 H   0  0  0  0  0  0
    3.5165    1.4570    0.4526 C   0  0  0  0  0  0
    4.0033    2.8627    0.8534 C   0  0  2  0  0  0
    3.6011    3.5398    0.0974 H   0  0  0  0  0  0
    5.5330    3.0000    0.8069 C   0  0  1  0  0  0
    5.8537    2.6716   -0.1807 H   0  0  0  0  0  0
    5.9261    4.4523    1.0293 C   0  0  0  0  0  0
    7.0379    4.9999    0.3403 C   0  0  0  0  0  0
    7.3824    6.3489    0.5187 C   0  0  0  0  0  0
    6.6253    7.1591    1.3759 C   0  0  0  0  0  0
    5.5287    6.6287    2.0805 C   0  0  0  0  0  0
    5.1706    5.2534    1.9349 C   0  0  0  0  0  0
    4.0195    4.6384    2.7011 C   0  0  0  0  0  0
    3.6031    5.1566    3.7381 O   0  0  0  0  0  0
    3.4188    3.3696    2.1693 C   0  0  0  0  0  0
    2.4017    2.7139    2.7905 C   0  0  0  0  0  0
    1.7368    1.4210    2.2701 C   0  0  2  0  0  0
    2.2564    0.1941    3.0572 C   0  0  0  0  0  0
    2.4806    0.3422    4.2608 O   0  0  0  0  0  0
    2.4117   -1.1253    2.3616 C   0  0  0  0  0  0
    2.0873   -1.2854    1.0011 C   0  0  0  0  0  0
    2.2359   -2.2369    0.1942 O   0  5  0  0  0  0
    2.9927   -2.2490    3.1312 C   0  0  0  0  0  0
    3.6850   -2.1387    4.1426 O   0  0  0  0  0  0
    2.6792   -3.4733    2.6924 N   0  0  0  0  0  0
    0.3313    1.4943    2.4619 O   0  0  0  0  0  0
    1.7875    3.1526    3.9056 O   0  0  0  0  0  0
    4.8403    7.5047    2.8749 O   0  5  0  0  0  0
    8.0127    4.0488   -0.7270 Cl  0  0  0  0  0  0
    6.1402    2.1466    1.7582 O   0  0  0  0  0  0
   -0.2039   -0.1232   -2.0383 H   0  0  0  0  0  0
   -0.0317    1.4924   -1.3483 H   0  0  0  0  0  0
   -1.5488    0.6247   -1.1723 H   0  0  0  0  0  0
   -0.4188   -2.1447   -0.3660 H   0  0  0  0  0  0
   -1.7709   -1.2329    0.2983 H   0  0  0  0  0  0
   -0.4792   -1.7406    1.3619 H   0  0  0  0  0  0
    4.1041    0.6979    0.9685 H   0  0  0  0  0  0
    3.7114    1.3065   -0.6098 H   0  0  0  0  0  0
    8.2263    6.7684   -0.0087 H   0  0  0  0  0  0
    6.8914    8.1997    1.4927 H   0  0  0  0  0  0
    2.1229   -3.5765    1.8554 H   0  0  0  0  0  0
    3.0267   -4.2864    3.1794 H   0  0  0  0  0  0
    0.1630    1.5925    3.3869 H   0  0  0  0  0  0
    1.1372    2.5110    4.1435 H   0  0  0  0  0  0
    7.0782    2.2149    1.6661 H   0  0  0  0  0  0
   -0.2938    0.5205    0.8184 H   0  0  0  0  0  0
  1  2  1  0  0  0
  1 37  1  0  0  0
  1 38  1  0  0  0
  1 39  1  0  0  0
  2  3  1  0  0  0
  2  4  1  0  0  0
  2 52  1  0  0  0
  3 40  1  0  0  0
  3 41  1  0  0  0
  3 42  1  0  0  0
  4  5  1  0  0  0
  4 27  1  0  0  0
  4  6  1  0  0  0
  6  7  1  0  0  0
  6 23  1  0  0  0
  6  8  1  0  0  0
  8  9  1  0  0  0
  8 43  1  0  0  0
  8 44  1  0  0  0
  9 10  1  0  0  0
  9 21  1  0  0  0
  9 11  1  0  0  0
 11 12  1  0  0  0
 11 13  1  0  0  0
 11 36  1  0  0  0
 13 18  2  0  0  0
 13 14  1  0  0  0
 14 15  2  0  0  0
 14 35  1  0  0  0
 15 16  1  0  0  0
 15 45  1  0  0  0
 16 17  2  0  0  0
 16 46  1  0  0  0
 17 18  1  0  0  0
 17 34  1  0  0  0
 18 19  1  0  0  0
 19 20  2  0  0  0
 19 21  1  0  0  0
 21 22  2  0  0  0
 22 23  1  0  0  0
 22 33  1  0  0  0
 23 24  1  0  0  0
 23 32  1  0  0  0
 24 25  2  0  0  0
 24 26  1  0  0  0
 26 27  2  0  0  0
 26 29  1  0  0  0
 27 28  1  0  0  0
 29 30  2  0  0  0
 29 31  1  0  0  0
 31 47  1  0  0  0
 31 48  1  0  0  0
 32 49  1  0  0  0
 33 50  1  0  0  0
 36 51  1  0  0  0
M  CHG  3   2   1  28  -1  34  -1
M  END
> <s_m_entry_id>
80

> <s_m_entry_name>
biosynth_p1.0.sdf.73

> <s_m_Source_Path>
/Users/Sebastito/Downloads

> <s_m_Source_File>
biosynth_p1.0.sdf.gz

> <i_m_Source_File_Index>
73

> <chiral flag>
1

> <version>
0

> <i_m_ct_enhanced_stereo_status>
0

> <s_m_source_file>
ligprep_vs.maegz

> <i_m_source_file_index>
73

> <i_lp_mmshare_version>
37011

> <r_epik_Ionization_Penalty>
1.5748

> <r_epik_Ionization_Penalty_Charging>
1.55839

> <r_epik_Ionization_Penalty_Neutral>
0.0164105

> <r_epik_State_Penalty>
1.67268

> <r_epik_Charging_Adjusted_Penalty>
3.23107

> <i_epik_Tot_Q>
-1

> <i_epik_Tot_abs_Q>
3

> <i_f3d_flags>
0

> <s_lp_Force_Field>
OPLS_2005

> <r_lp_Energy>
47.774

> <b_lp_Chiralities_Consistent>
1

> <s_lp_Variant>
ZINC19795961-3

$$$$
ZINC19795961
                    3D
 Structure written by MMmdl.
 52 55  0  0  1  0            999 V2000
   -0.6821   -0.7657    0.9867 C   0  0  0  0  0  0
    0.0662   -0.1835   -0.1554 N   0  3  0  0  0  0
   -0.3005   -0.8460   -1.4285 C   0  0  0  0  0  0
    1.5508   -0.0068    0.0016 C   0  0  1  0  0  0
    2.0059   -0.8194   -0.5720 H   0  0  0  0  0  0
    2.0108    1.3083   -0.6814 C   0  0  2  0  0  0
    1.5115    1.3931   -1.6475 H   0  0  0  0  0  0
    3.5210    1.2605   -0.9753 C   0  0  0  0  0  0
    4.0174    2.4980   -1.7411 C   0  0  2  0  0  0
    3.7781    2.3022   -2.7884 H   0  0  0  0  0  0
    5.5432    2.6631   -1.6451 C   0  0  1  0  0  0
    5.9880    1.7172   -1.9525 H   0  0  0  0  0  0
    6.0209    3.7765   -2.5629 C   0  0  0  0  0  0
    7.3152    3.7057   -3.1384 C   0  0  0  0  0  0
    7.7633    4.7231   -3.9953 C   0  0  0  0  0  0
    6.9323    5.8149   -4.2813 C   0  0  0  0  0  0
    5.6508    5.9084   -3.7077 C   0  0  0  0  0  0
    5.1729    4.8912   -2.8267 C   0  0  0  0  0  0
    3.8072    4.9799   -2.1807 C   0  0  0  0  0  0
    3.1206    5.9968   -2.2830 O   0  0  0  0  0  0
    3.2859    3.8006   -1.4203 C   0  0  0  0  0  0
    2.1975    3.8670   -0.5430 C   0  0  0  0  0  0
    1.6622    2.5682    0.1529 C   0  0  2  0  0  0
    2.2330    2.4286    1.5865 C   0  0  0  0  0  0
    2.5306    3.4582    2.1970 O   0  0  0  0  0  0
    2.3524    1.0625    2.1960 C   0  0  0  0  0  0
    2.0596   -0.1038    1.4627 C   0  0  0  0  0  0
    2.2070   -1.3256    1.7175 O   0  5  0  0  0  0
    2.8832    0.9600    3.5734 C   0  0  0  0  0  0
    3.6004    1.7920    4.1281 O   0  0  0  0  0  0
    2.4826   -0.1144    4.2627 N   0  0  0  0  0  0
    0.2436    2.6236    0.2670 O   0  0  0  0  0  0
    1.4749    4.8493   -0.2347 O   0  5  0  0  0  0
    4.9134    7.0087   -4.0478 O   0  0  0  0  0  0
    8.3915    2.3924   -2.8072 Cl  0  0  0  0  0  0
    5.9322    2.9054   -0.3063 O   0  0  0  0  0  0
   -0.3839   -1.7975    1.1747 H   0  0  0  0  0  0
   -1.7520   -0.7632    0.7774 H   0  0  0  0  0  0
   -0.5400   -0.1824    1.8969 H   0  0  0  0  0  0
    0.0139   -1.8905   -1.4259 H   0  0  0  0  0  0
    0.1649   -0.3528   -2.2816 H   0  0  0  0  0  0
   -1.3795   -0.8160   -1.5822 H   0  0  0  0  0  0
    4.0761    1.1467   -0.0448 H   0  0  0  0  0  0
    3.7604    0.3710   -1.5588 H   0  0  0  0  0  0
    8.7481    4.6678   -4.4355 H   0  0  0  0  0  0
    7.2863    6.5898   -4.9456 H   0  0  0  0  0  0
    1.9005   -0.8064    3.8128 H   0  0  0  0  0  0
    2.7875   -0.2423    5.2162 H   0  0  0  0  0  0
    0.0245    3.4757    0.6149 H   0  0  0  0  0  0
    5.3673    7.5957   -4.6322 H   0  0  0  0  0  0
    6.8759    2.9177   -0.2651 H   0  0  0  0  0  0
   -0.2841    0.7626   -0.2219 H   0  0  0  0  0  0
  1  2  1  0  0  0
  1 37  1  0  0  0
  1 38  1  0  0  0
  1 39  1  0  0  0
  2  3  1  0  0  0
  2  4  1  0  0  0
  2 52  1  0  0  0
  3 40  1  0  0  0
  3 41  1  0  0  0
  3 42  1  0  0  0
  4  5  1  0  0  0
  4 27  1  0  0  0
  4  6  1  0  0  0
  6  7  1  0  0  0
  6 23  1  0  0  0
  6  8  1  0  0  0
  8  9  1  0  0  0
  8 43  1  0  0  0
  8 44  1  0  0  0
  9 10  1  0  0  0
  9 21  1  0  0  0
  9 11  1  0  0  0
 11 12  1  0  0  0
 11 13  1  0  0  0
 11 36  1  0  0  0
 13 18  2  0  0  0
 13 14  1  0  0  0
 14 15  2  0  0  0
 14 35  1  0  0  0
 15 16  1  0  0  0
 15 45  1  0  0  0
 16 17  2  0  0  0
 16 46  1  0  0  0
 17 18  1  0  0  0
 17 34  1  0  0  0
 18 19  1  0  0  0
 19 20  2  0  0  0
 19 21  1  0  0  0
 21 22  2  0  0  0
 22 23  1  0  0  0
 22 33  1  0  0  0
 23 24  1  0  0  0
 23 32  1  0  0  0
 24 25  2  0  0  0
 24 26  1  0  0  0
 26 27  2  0  0  0
 26 29  1  0  0  0
 27 28  1  0  0  0
 29 30  2  0  0  0
 29 31  1  0  0  0
 31 47  1  0  0  0
 31 48  1  0  0  0
 32 49  1  0  0  0
 34 50  1  0  0  0
 36 51  1  0  0  0
M  CHG  3   2   1  28  -1  33  -1
M  END
> <s_m_entry_id>
80

> <s_m_entry_name>
biosynth_p1.0.sdf.73

> <s_m_Source_Path>
/Users/Sebastito/Downloads

> <s_m_Source_File>
biosynth_p1.0.sdf.gz

> <i_m_Source_File_Index>
73

> <chiral flag>
1

> <version>
0

> <i_m_ct_enhanced_stereo_status>
0

> <s_m_source_file>
ligprep_vs.maegz

> <i_m_source_file_index>
73

> <i_lp_mmshare_version>
37011

> <r_epik_Ionization_Penalty>
2.1444

> <r_epik_Ionization_Penalty_Charging>
2.14297

> <r_epik_Ionization_Penalty_Neutral>
0.00142669

> <r_epik_State_Penalty>
2.43806

> <r_epik_Charging_Adjusted_Penalty>
4.58103

> <i_epik_Tot_Q>
-1

> <i_epik_Tot_abs_Q>
3

> <i_f3d_flags>
0

> <s_lp_Force_Field>
OPLS_2005

> <r_lp_Energy>
51.1588

> <b_lp_Chiralities_Consistent>
1

> <s_lp_Variant>
ZINC19795961-4

$$$$
ZINC19795961
                    3D
 Structure written by MMmdl.
 51 54  0  0  1  0            999 V2000
   -0.7916    1.0356    0.1731 C   0  0  0  0  0  0
    0.0738   -0.1399    0.1110 N   0  0  0  0  0  0
   -0.2109   -1.0190    1.2374 C   0  0  0  0  0  0
    1.5258    0.1008   -0.0455 C   0  0  1  0  0  0
    2.0092   -0.4746    0.7476 H   0  0  0  0  0  0
    2.0102   -0.5677   -1.3563 C   0  0  2  0  0  0
    1.4365   -1.4860   -1.5005 H   0  0  0  0  0  0
    3.4854   -1.0053   -1.2270 C   0  0  0  0  0  0
    3.9679   -1.8099   -2.4510 C   0  0  2  0  0  0
    3.5300   -2.8037   -2.3391 H   0  0  0  0  0  0
    5.4926   -1.9926   -2.4800 C   0  0  1  0  0  0
    5.7805   -2.4138   -1.5178 H   0  0  0  0  0  0
    5.8828   -2.9414   -3.6031 C   0  0  0  0  0  0
    6.9824   -3.8207   -3.4334 C   0  0  0  0  0  0
    7.3329   -4.7166   -4.4553 C   0  0  0  0  0  0
    6.5931   -4.7476   -5.6449 C   0  0  0  0  0  0
    5.5074   -3.8731   -5.8367 C   0  0  0  0  0  0
    5.1433   -2.9343   -4.8224 C   0  0  0  0  0  0
    4.0049   -1.9525   -5.0080 C   0  0  0  0  0  0
    3.5765   -1.6858   -6.1316 O   0  0  0  0  0  0
    3.4267   -1.3040   -3.7848 C   0  0  0  0  0  0
    2.4619   -0.3476   -3.8384 C   0  0  0  0  0  0
    1.8213    0.3266   -2.6078 C   0  0  2  0  0  0
    2.4437    1.7231   -2.3751 C   0  0  0  0  0  0
    2.8968    2.3258   -3.3518 O   0  0  0  0  0  0
    2.4210    2.3122   -0.9983 C   0  0  0  0  0  0
    1.9956    1.5665    0.1173 C   0  0  0  0  0  0
    1.9944    1.8060    1.3509 O   0  5  0  0  0  0
    2.9369    3.6879   -0.8206 C   0  0  0  0  0  0
    3.7368    4.2549   -1.5646 O   0  0  0  0  0  0
    2.4251    4.3611    0.2161 N   0  0  0  0  0  0
    0.4300    0.4979   -2.8304 O   0  0  0  0  0  0
    1.8794    0.0849   -4.9725 O   0  0  0  0  0  0
    4.8369   -3.9980   -7.0228 O   0  5  0  0  0  0
    7.9369   -3.8257   -1.9902 Cl  0  0  0  0  0  0
    6.1438   -0.7432   -2.6112 O   0  0  0  0  0  0
   -0.6153    1.7002   -0.6727 H   0  0  0  0  0  0
   -0.6397    1.5998    1.0938 H   0  0  0  0  0  0
   -1.8388    0.7339    0.1379 H   0  0  0  0  0  0
    0.3403   -1.9551    1.1433 H   0  0  0  0  0  0
   -1.2728   -1.2633    1.2786 H   0  0  0  0  0  0
    0.0695   -0.5470    2.1801 H   0  0  0  0  0  0
    4.1151   -0.1279   -1.0790 H   0  0  0  0  0  0
    3.6205   -1.6156   -0.3334 H   0  0  0  0  0  0
    8.1685   -5.3883   -4.3258 H   0  0  0  0  0  0
    6.8647   -5.4517   -6.4183 H   0  0  0  0  0  0
    1.7734    3.8981    0.8342 H   0  0  0  0  0  0
    2.7111    5.3127    0.3910 H   0  0  0  0  0  0
    0.0356   -0.3570   -2.9074 H   0  0  0  0  0  0
    1.2316    0.7273   -4.7247 H   0  0  0  0  0  0
    7.0764   -0.8843   -2.5560 H   0  0  0  0  0  0
  1  2  1  0  0  0
  1 37  1  0  0  0
  1 38  1  0  0  0
  1 39  1  0  0  0
  2  3  1  0  0  0
  2  4  1  0  0  0
  3 40  1  0  0  0
  3 41  1  0  0  0
  3 42  1  0  0  0
  4  5  1  0  0  0
  4 27  1  0  0  0
  4  6  1  0  0  0
  6  7  1  0  0  0
  6 23  1  0  0  0
  6  8  1  0  0  0
  8  9  1  0  0  0
  8 43  1  0  0  0
  8 44  1  0  0  0
  9 10  1  0  0  0
  9 21  1  0  0  0
  9 11  1  0  0  0
 11 12  1  0  0  0
 11 13  1  0  0  0
 11 36  1  0  0  0
 13 18  2  0  0  0
 13 14  1  0  0  0
 14 15  2  0  0  0
 14 35  1  0  0  0
 15 16  1  0  0  0
 15 45  1  0  0  0
 16 17  2  0  0  0
 16 46  1  0  0  0
 17 18  1  0  0  0
 17 34  1  0  0  0
 18 19  1  0  0  0
 19 20  2  0  0  0
 19 21  1  0  0  0
 21 22  2  0  0  0
 22 23  1  0  0  0
 22 33  1  0  0  0
 23 24  1  0  0  0
 23 32  1  0  0  0
 24 25  2  0  0  0
 24 26  1  0  0  0
 26 27  2  0  0  0
 26 29  1  0  0  0
 27 28  1  0  0  0
 29 30  2  0  0  0
 29 31  1  0  0  0
 31 47  1  0  0  0
 31 48  1  0  0  0
 32 49  1  0  0  0
 33 50  1  0  0  0
 36 51  1  0  0  0
M  CHG  2  28  -1  34  -1
M  END
> <s_m_entry_id>
80

> <s_m_entry_name>
biosynth_p1.0.sdf.73

> <s_m_Source_Path>
/Users/Sebastito/Downloads

> <s_m_Source_File>
biosynth_p1.0.sdf.gz

> <i_m_Source_File_Index>
73

> <chiral flag>
1

> <version>
0

> <i_m_ct_enhanced_stereo_status>
0

> <s_m_source_file>
ligprep_vs.maegz

> <i_m_source_file_index>
73

> <i_lp_mmshare_version>
37011

> <r_epik_Ionization_Penalty>
2.51643

> <r_epik_Ionization_Penalty_Charging>
1.5346

> <r_epik_Ionization_Penalty_Neutral>
0.981825

> <r_epik_State_Penalty>
2.6095

> <r_epik_Charging_Adjusted_Penalty>
4.1441

> <i_epik_Tot_Q>
-2

> <i_epik_Tot_abs_Q>
2

> <i_f3d_flags>
0

> <s_lp_Force_Field>
OPLS_2005

> <r_lp_Energy>
54.9796

> <b_lp_Chiralities_Consistent>
1

> <s_lp_Variant>
ZINC19795961-5

$$$$
ZINC19363542
                    3D
 Structure written by MMmdl.
 19 19  0  0  1  0            999 V2000
   -2.4563    0.7796   -1.3438 C   0  0  0  0  0  0
   -1.9470    1.5641   -0.1199 C   0  0  0  0  0  0
   -0.4773    1.4604   -0.0264 N   0  3  0  0  0  0
   -0.0378    0.0495    0.0017 C   0  0  1  0  0  0
   -0.4199   -0.4114    0.9152 H   0  0  0  0  0  0
   -0.6035   -0.6998   -1.2284 C   0  0  0  0  0  0
   -2.0621   -0.6214   -1.2339 N   0  0  0  0  0  0
    1.4970    0.0097    0.0099 C   0  0  0  0  0  0
    2.0462   -0.5337    0.9931 O   0  0  0  0  0  0
    2.1015    0.5359   -0.9522 O   0  5  0  0  0  0
   -2.0662    1.2058   -2.2693 H   0  0  0  0  0  0
   -3.5434    0.8365   -1.3984 H   0  0  0  0  0  0
   -2.2248    2.6152   -0.1996 H   0  0  0  0  0  0
   -2.3980    1.1816    0.7969 H   0  0  0  0  0  0
   -0.2121   -0.2902   -2.1612 H   0  0  0  0  0  0
   -0.3126   -1.7502   -1.1940 H   0  0  0  0  0  0
   -2.4218   -1.1375   -2.0249 H   0  0  0  0  0  0
   -0.0609    1.9004   -0.8345 H   0  0  0  0  0  0
   -0.1499    1.9257    0.8076 H   0  0  0  0  0  0
  1  7  1  0  0  0
  1  2  1  0  0  0
  1 11  1  0  0  0
  1 12  1  0  0  0
  2  3  1  0  0  0
  2 13  1  0  0  0
  2 14  1  0  0  0
  3  4  1  0  0  0
  3 18  1  0  0  0
  3 19  1  0  0  0
  4  5  1  0  0  0
  4  6  1  0  0  0
  4  8  1  0  0  0
  6  7  1  0  0  0
  6 15  1  0  0  0
  6 16  1  0  0  0
  7 17  1  0  0  0
  8  9  2  0  0  0
  8 10  1  0  0  0
M  CHG  2   3   1  10  -1
M  END
> <s_m_entry_id>
81

> <s_m_entry_name>
biosynth_p1.0.sdf.74

> <s_m_Source_Path>
/Users/Sebastito/Downloads

> <s_m_Source_File>
biosynth_p1.0.sdf.gz

> <i_m_Source_File_Index>
74

> <chiral flag>
1

> <version>
0

> <i_m_ct_enhanced_stereo_status>
0

> <s_m_source_file>
ligprep_vs.maegz

> <i_m_source_file_index>
74

> <i_lp_mmshare_version>
37011

> <r_epik_Ionization_Penalty>
0.110078

> <r_epik_Ionization_Penalty_Charging>
0.000106079

> <r_epik_Ionization_Penalty_Neutral>
0.109971

> <r_epik_State_Penalty>
0.150271

> <r_epik_Charging_Adjusted_Penalty>
0.150378

> <i_epik_Tot_Q>
0

> <i_epik_Tot_abs_Q>
2

> <i_f3d_flags>
0

> <s_lp_Force_Field>
OPLS_2005

> <r_lp_Energy>
-0.117956

> <b_lp_Chiralities_Consistent>
1

> <s_lp_Variant>
ZINC19363542-1

$$$$
ZINC19363542
                    3D
 Structure written by MMmdl.
 20 20  0  0  1  0            999 V2000
   -2.5316    0.8464   -1.2652 C   0  0  0  0  0  0
   -1.9534    1.5976   -0.0519 C   0  0  0  0  0  0
   -0.4827    1.4576   -0.0001 N   0  3  0  0  0  0
   -0.0402    0.0452   -0.0009 C   0  0  1  0  0  0
   -0.4049   -0.4211    0.9170 H   0  0  0  0  0  0
   -0.6258   -0.7073   -1.2193 C   0  0  0  0  0  0
   -2.0969   -0.5672   -1.2635 N   0  3  0  0  0  0
    1.4933    0.0087   -0.0210 C   0  0  0  0  0  0
    2.0585   -0.5600    0.9377 O   0  0  0  0  0  0
    2.0777    0.5566   -0.9828 O   0  5  0  0  0  0
   -2.2037    1.3179   -2.1926 H   0  0  0  0  0  0
   -3.6211    0.8866   -1.2548 H   0  0  0  0  0  0
   -2.2106    2.6557   -0.1000 H   0  0  0  0  0  0
   -2.3800    1.2080    0.8734 H   0  0  0  0  0  0
   -0.2164   -0.3256   -2.1562 H   0  0  0  0  0  0
   -0.3741   -1.7673   -1.1714 H   0  0  0  0  0  0
   -2.4868   -1.0256   -0.4520 H   0  0  0  0  0  0
   -0.0783    1.9103   -0.8079 H   0  0  0  0  0  0
   -0.1280    1.9083    0.8317 H   0  0  0  0  0  0
   -2.4463   -1.0244   -2.0940 H   0  0  0  0  0  0
  1  7  1  0  0  0
  1  2  1  0  0  0
  1 11  1  0  0  0
  1 12  1  0  0  0
  2  3  1  0  0  0
  2 13  1  0  0  0
  2 14  1  0  0  0
  3  4  1  0  0  0
  3 18  1  0  0  0
  3 19  1  0  0  0
  4  5  1  0  0  0
  4  6  1  0  0  0
  4  8  1  0  0  0
  6  7  1  0  0  0
  6 15  1  0  0  0
  6 16  1  0  0  0
  7 17  1  0  0  0
  7 20  1  0  0  0
  8  9  2  0  0  0
  8 10  1  0  0  0
M  CHG  3   3   1   7   1  10  -1
M  END
> <s_m_entry_id>
81

> <s_m_entry_name>
biosynth_p1.0.sdf.74

> <s_m_Source_Path>
/Users/Sebastito/Downloads

> <s_m_Source_File>
biosynth_p1.0.sdf.gz

> <i_m_Source_File_Index>
74

> <chiral flag>
1

> <version>
0

> <i_m_ct_enhanced_stereo_status>
0

> <s_m_source_file>
ligprep_vs.maegz

> <i_m_source_file_index>
74

> <i_lp_mmshare_version>
37011

> <r_epik_Ionization_Penalty>
1.32862

> <r_epik_Ionization_Penalty_Charging>
1.32862

> <r_epik_Ionization_Penalty_Neutral>
0

> <r_epik_State_Penalty>
1.15543

> <r_epik_Charging_Adjusted_Penalty>
2.48405

> <i_epik_Tot_Q>
1

> <i_epik_Tot_abs_Q>
3

> <i_f3d_flags>
0

> <s_lp_Force_Field>
OPLS_2005

> <r_lp_Energy>
-0.825885

> <b_lp_Chiralities_Consistent>
1

> <s_lp_Variant>
ZINC19363542-2

$$$$
ZINC19363542
                    3D
 Structure written by MMmdl.
 19 19  0  0  1  0            999 V2000
   -2.5318    0.6797   -1.2347 C   0  0  0  0  0  0
   -1.9615    1.4452   -0.0253 C   0  0  0  0  0  0
   -0.5029    1.4414   -0.0768 N   0  0  0  0  0  0
   -0.0198    0.0472   -0.0250 C   0  0  1  0  0  0
   -0.3824   -0.4071    0.8988 H   0  0  0  0  0  0
   -0.5632   -0.7540   -1.2272 C   0  0  0  0  0  0
   -2.0388   -0.7125   -1.2361 N   0  3  0  0  0  0
    1.5110   -0.0318    0.0084 C   0  0  0  0  0  0
    2.0050   -1.0031    0.6205 O   0  0  0  0  0  0
    2.1607    0.8565   -0.5869 O   0  5  0  0  0  0
   -2.2472    1.1685   -2.1677 H   0  0  0  0  0  0
   -3.6211    0.6707   -1.1977 H   0  0  0  0  0  0
   -2.3091    2.4785   -0.0399 H   0  0  0  0  0  0
   -2.3054    1.0068    0.9130 H   0  0  0  0  0  0
   -0.1853   -0.3493   -2.1679 H   0  0  0  0  0  0
   -0.2435   -1.7955   -1.1754 H   0  0  0  0  0  0
   -2.3778   -1.1777   -0.4065 H   0  0  0  0  0  0
   -0.1346    1.9813    0.6939 H   0  0  0  0  0  0
   -2.3835   -1.1940   -2.0538 H   0  0  0  0  0  0
  1  7  1  0  0  0
  1  2  1  0  0  0
  1 11  1  0  0  0
  1 12  1  0  0  0
  2  3  1  0  0  0
  2 13  1  0  0  0
  2 14  1  0  0  0
  3  4  1  0  0  0
  3 18  1  0  0  0
  4  5  1  0  0  0
  4  6  1  0  0  0
  4  8  1  0  0  0
  6  7  1  0  0  0
  6 15  1  0  0  0
  6 16  1  0  0  0
  7 17  1  0  0  0
  7 19  1  0  0  0
  8  9  2  0  0  0
  8 10  1  0  0  0
M  CHG  2   7   1  10  -1
M  END
> <s_m_entry_id>
81

> <s_m_entry_name>
biosynth_p1.0.sdf.74

> <s_m_Source_Path>
/Users/Sebastito/Downloads

> <s_m_Source_File>
biosynth_p1.0.sdf.gz

> <i_m_Source_File_Index>
74

> <chiral flag>
1

> <version>
0

> <i_m_ct_enhanced_stereo_status>
0

> <s_m_source_file>
ligprep_vs.maegz

> <i_m_source_file_index>
74

> <i_lp_mmshare_version>
37011

> <r_epik_Ionization_Penalty>
0.585448

> <r_epik_Ionization_Penalty_Charging>
0.0013135

> <r_epik_Ionization_Penalty_Neutral>
0.584134

> <r_epik_State_Penalty>
1.48352

> <r_epik_Charging_Adjusted_Penalty>
1.48483

> <i_epik_Tot_Q>
0

> <i_epik_Tot_abs_Q>
2

> <i_f3d_flags>
0

> <s_lp_Force_Field>
OPLS_2005

> <r_lp_Energy>
0.119123

> <b_lp_Chiralities_Consistent>
1

> <s_lp_Variant>
ZINC19363542-3

$$$$
ZINC19363542
                    3D
 Structure written by MMmdl.
 19 19  0  0  1  0            999 V2000
   -2.4563    0.7796   -1.3438 C   0  0  0  0  0  0
   -1.9470    1.5641   -0.1199 C   0  0  0  0  0  0
   -0.4773    1.4604   -0.0264 N   0  3  0  0  0  0
   -0.0378    0.0495    0.0017 C   0  0  1  0  0  0
   -0.4199   -0.4114    0.9152 H   0  0  0  0  0  0
   -0.6035   -0.6998   -1.2284 C   0  0  0  0  0  0
   -2.0621   -0.6214   -1.2339 N   0  0  0  0  0  0
    1.4970    0.0097    0.0099 C   0  0  0  0  0  0
    2.0462   -0.5337    0.9931 O   0  0  0  0  0  0
    2.1015    0.5359   -0.9522 O   0  5  0  0  0  0
   -2.0662    1.2058   -2.2693 H   0  0  0  0  0  0
   -3.5434    0.8365   -1.3984 H   0  0  0  0  0  0
   -2.2248    2.6152   -0.1996 H   0  0  0  0  0  0
   -2.3980    1.1816    0.7969 H   0  0  0  0  0  0
   -0.2121   -0.2902   -2.1612 H   0  0  0  0  0  0
   -0.3126   -1.7502   -1.1940 H   0  0  0  0  0  0
   -2.4218   -1.1375   -2.0249 H   0  0  0  0  0  0
   -0.0609    1.9004   -0.8345 H   0  0  0  0  0  0
   -0.1499    1.9257    0.8076 H   0  0  0  0  0  0
  1  7  1  0  0  0
  1  2  1  0  0  0
  1 11  1  0  0  0
  1 12  1  0  0  0
  2  3  1  0  0  0
  2 13  1  0  0  0
  2 14  1  0  0  0
  3  4  1  0  0  0
  3 18  1  0  0  0
  3 19  1  0  0  0
  4  5  1  0  0  0
  4  6  1  0  0  0
  4  8  1  0  0  0
  6  7  1  0  0  0
  6 15  1  0  0  0
  6 16  1  0  0  0
  7 17  1  0  0  0
  8  9  2  0  0  0
  8 10  1  0  0  0
M  CHG  2   3   1  10  -1
M  END
> <s_m_entry_id>
82

> <s_m_entry_name>
biosynth_p1.0.sdf.75

> <s_m_Source_Path>
/Users/Sebastito/Downloads

> <s_m_Source_File>
biosynth_p1.0.sdf.gz

> <i_m_Source_File_Index>
75

> <chiral flag>
1

> <version>
0

> <i_m_ct_enhanced_stereo_status>
0

> <s_m_source_file>
ligprep_vs.maegz

> <i_m_source_file_index>
75

> <i_lp_mmshare_version>
37011

> <r_epik_Ionization_Penalty>
0.110078

> <r_epik_Ionization_Penalty_Charging>
0.000106079

> <r_epik_Ionization_Penalty_Neutral>
0.109971

> <r_epik_State_Penalty>
0.150271

> <r_epik_Charging_Adjusted_Penalty>
0.150378

> <i_epik_Tot_Q>
0

> <i_epik_Tot_abs_Q>
2

> <i_f3d_flags>
0

> <s_lp_Force_Field>
OPLS_2005

> <r_lp_Energy>
-0.117956

> <b_lp_Chiralities_Consistent>
1

> <s_lp_Variant>
ZINC19363542-1

$$$$
ZINC19363542
                    3D
 Structure written by MMmdl.
 20 20  0  0  1  0            999 V2000
   -2.5316    0.8464   -1.2652 C   0  0  0  0  0  0
   -1.9534    1.5976   -0.0519 C   0  0  0  0  0  0
   -0.4827    1.4576   -0.0001 N   0  3  0  0  0  0
   -0.0402    0.0452   -0.0009 C   0  0  1  0  0  0
   -0.4049   -0.4211    0.9170 H   0  0  0  0  0  0
   -0.6258   -0.7073   -1.2193 C   0  0  0  0  0  0
   -2.0969   -0.5672   -1.2635 N   0  3  0  0  0  0
    1.4933    0.0087   -0.0210 C   0  0  0  0  0  0
    2.0585   -0.5600    0.9377 O   0  0  0  0  0  0
    2.0777    0.5566   -0.9828 O   0  5  0  0  0  0
   -2.2037    1.3179   -2.1926 H   0  0  0  0  0  0
   -3.6211    0.8866   -1.2548 H   0  0  0  0  0  0
   -2.2106    2.6557   -0.1000 H   0  0  0  0  0  0
   -2.3800    1.2080    0.8734 H   0  0  0  0  0  0
   -0.2164   -0.3256   -2.1562 H   0  0  0  0  0  0
   -0.3741   -1.7673   -1.1714 H   0  0  0  0  0  0
   -2.4868   -1.0256   -0.4520 H   0  0  0  0  0  0
   -0.0783    1.9103   -0.8079 H   0  0  0  0  0  0
   -0.1280    1.9083    0.8317 H   0  0  0  0  0  0
   -2.4463   -1.0244   -2.0940 H   0  0  0  0  0  0
  1  7  1  0  0  0
  1  2  1  0  0  0
  1 11  1  0  0  0
  1 12  1  0  0  0
  2  3  1  0  0  0
  2 13  1  0  0  0
  2 14  1  0  0  0
  3  4  1  0  0  0
  3 18  1  0  0  0
  3 19  1  0  0  0
  4  5  1  0  0  0
  4  6  1  0  0  0
  4  8  1  0  0  0
  6  7  1  0  0  0
  6 15  1  0  0  0
  6 16  1  0  0  0
  7 17  1  0  0  0
  7 20  1  0  0  0
  8  9  2  0  0  0
  8 10  1  0  0  0
M  CHG  3   3   1   7   1  10  -1
M  END
> <s_m_entry_id>
82

> <s_m_entry_name>
biosynth_p1.0.sdf.75

> <s_m_Source_Path>
/Users/Sebastito/Downloads

> <s_m_Source_File>
biosynth_p1.0.sdf.gz

> <i_m_Source_File_Index>
75

> <chiral flag>
1

> <version>
0

> <i_m_ct_enhanced_stereo_status>
0

> <s_m_source_file>
ligprep_vs.maegz

> <i_m_source_file_index>
75

> <i_lp_mmshare_version>
37011

> <r_epik_Ionization_Penalty>
1.32862

> <r_epik_Ionization_Penalty_Charging>
1.32862

> <r_epik_Ionization_Penalty_Neutral>
0

> <r_epik_State_Penalty>
1.15543

> <r_epik_Charging_Adjusted_Penalty>
2.48405

> <i_epik_Tot_Q>
1

> <i_epik_Tot_abs_Q>
3

> <i_f3d_flags>
0

> <s_lp_Force_Field>
OPLS_2005

> <r_lp_Energy>
-0.825885

> <b_lp_Chiralities_Consistent>
1

> <s_lp_Variant>
ZINC19363542-2

$$$$
ZINC19363542
                    3D
 Structure written by MMmdl.
 19 19  0  0  1  0            999 V2000
   -2.5318    0.6797   -1.2347 C   0  0  0  0  0  0
   -1.9615    1.4452   -0.0253 C   0  0  0  0  0  0
   -0.5029    1.4414   -0.0768 N   0  0  0  0  0  0
   -0.0198    0.0472   -0.0250 C   0  0  1  0  0  0
   -0.3824   -0.4071    0.8988 H   0  0  0  0  0  0
   -0.5632   -0.7540   -1.2272 C   0  0  0  0  0  0
   -2.0388   -0.7125   -1.2361 N   0  3  0  0  0  0
    1.5110   -0.0318    0.0084 C   0  0  0  0  0  0
    2.0050   -1.0031    0.6205 O   0  0  0  0  0  0
    2.1607    0.8565   -0.5869 O   0  5  0  0  0  0
   -2.2472    1.1685   -2.1677 H   0  0  0  0  0  0
   -3.6211    0.6707   -1.1977 H   0  0  0  0  0  0
   -2.3091    2.4785   -0.0399 H   0  0  0  0  0  0
   -2.3054    1.0068    0.9130 H   0  0  0  0  0  0
   -0.1853   -0.3493   -2.1679 H   0  0  0  0  0  0
   -0.2435   -1.7955   -1.1754 H   0  0  0  0  0  0
   -2.3778   -1.1777   -0.4065 H   0  0  0  0  0  0
   -0.1346    1.9813    0.6939 H   0  0  0  0  0  0
   -2.3835   -1.1940   -2.0538 H   0  0  0  0  0  0
  1  7  1  0  0  0
  1  2  1  0  0  0
  1 11  1  0  0  0
  1 12  1  0  0  0
  2  3  1  0  0  0
  2 13  1  0  0  0
  2 14  1  0  0  0
  3  4  1  0  0  0
  3 18  1  0  0  0
  4  5  1  0  0  0
  4  6  1  0  0  0
  4  8  1  0  0  0
  6  7  1  0  0  0
  6 15  1  0  0  0
  6 16  1  0  0  0
  7 17  1  0  0  0
  7 19  1  0  0  0
  8  9  2  0  0  0
  8 10  1  0  0  0
M  CHG  2   7   1  10  -1
M  END
> <s_m_entry_id>
82

> <s_m_entry_name>
biosynth_p1.0.sdf.75

> <s_m_Source_Path>
/Users/Sebastito/Downloads

> <s_m_Source_File>
biosynth_p1.0.sdf.gz

> <i_m_Source_File_Index>
75

> <chiral flag>
1

> <version>
0

> <i_m_ct_enhanced_stereo_status>
0

> <s_m_source_file>
ligprep_vs.maegz

> <i_m_source_file_index>
75

> <i_lp_mmshare_version>
37011

> <r_epik_Ionization_Penalty>
0.585448

> <r_epik_Ionization_Penalty_Charging>
0.0013135

> <r_epik_Ionization_Penalty_Neutral>
0.584134

> <r_epik_State_Penalty>
1.48352

> <r_epik_Charging_Adjusted_Penalty>
1.48483

> <i_epik_Tot_Q>
0

> <i_epik_Tot_abs_Q>
2

> <i_f3d_flags>
0

> <s_lp_Force_Field>
OPLS_2005

> <r_lp_Energy>
0.119123

> <b_lp_Chiralities_Consistent>
1

> <s_lp_Variant>
ZINC19363542-3

$$$$
ZINC18847043
                    3D
 Structure written by MMmdl.
 27 28  0  0  1  0            999 V2000
    2.2483    4.4180    1.7305 C   0  0  0  0  0  0
    1.5380    4.6137    0.5300 C   0  0  0  0  0  0
    0.7259    3.5842    0.0154 C   0  0  0  0  0  0
    0.6327    2.3521    0.6944 C   0  0  0  0  0  0
    1.3312    2.1642    1.9077 C   0  0  0  0  0  0
    2.1426    3.1948    2.4207 C   0  0  0  0  0  0
   -0.1991    1.3329    0.1689 N   0  0  0  0  0  0
    0.2767    0.2462   -0.2503 N   0  0  0  0  0  0
    1.6684    0.0882   -0.4758 C   0  0  0  0  0  0
    2.4258   -0.6955    0.4191 C   0  0  0  0  0  0
    3.8051   -0.8535    0.1882 C   0  0  0  0  0  0
    4.3713   -0.2287   -0.9405 C   0  0  0  0  0  0
    3.6527    0.5070   -1.8152 N   0  0  0  0  0  0
    2.3289    0.6583   -1.5938 C   0  0  0  0  0  0
    1.6366    1.4063   -2.5465 N   0  0  0  0  0  0
    5.7332   -0.3586   -1.2003 N   0  0  0  0  0  0
    2.8707    5.2080    2.1242 H   0  0  0  0  0  0
    1.6156    5.5536    0.0039 H   0  0  0  0  0  0
    0.1828    3.7393   -0.9054 H   0  0  0  0  0  0
    1.2495    1.2297    2.4435 H   0  0  0  0  0  0
    2.6826    3.0476    3.3444 H   0  0  0  0  0  0
    1.9597   -1.1602    1.2756 H   0  0  0  0  0  0
    4.4100   -1.4404    0.8639 H   0  0  0  0  0  0
    0.6442    1.5738   -2.4650 H   0  0  0  0  0  0
    2.1089    1.8101   -3.3423 H   0  0  0  0  0  0
    6.3394   -0.8908   -0.5932 H   0  0  0  0  0  0
    6.1587    0.0825   -2.0031 H   0  0  0  0  0  0
  1  6  2  0  0  0
  1  2  1  0  0  0
  1 17  1  0  0  0
  2  3  2  0  0  0
  2 18  1  0  0  0
  3  4  1  0  0  0
  3 19  1  0  0  0
  4  5  2  0  0  0
  4  7  1  0  0  0
  5  6  1  0  0  0
  5 20  1  0  0  0
  6 21  1  0  0  0
  7  8  2  0  0  0
  8  9  1  0  0  0
  9 14  2  0  0  0
  9 10  1  0  0  0
 10 11  2  0  0  0
 10 22  1  0  0  0
 11 12  1  0  0  0
 11 23  1  0  0  0
 12 13  2  0  0  0
 12 16  1  0  0  0
 13 14  1  0  0  0
 14 15  1  0  0  0
 15 24  1  0  0  0
 15 25  1  0  0  0
 16 26  1  0  0  0
 16 27  1  0  0  0
M  END
> <s_m_entry_id>
83

> <s_m_entry_name>
biosynth_p1.0.sdf.76

> <s_m_Source_Path>
/Users/Sebastito/Downloads

> <s_m_Source_File>
biosynth_p1.0.sdf.gz

> <i_m_Source_File_Index>
76

> <chiral flag>
0

> <version>
0

> <i_m_ct_enhanced_stereo_status>
0

> <s_m_source_file>
ligprep_vs.maegz

> <i_m_source_file_index>
76

> <i_lp_mmshare_version>
37011

> <r_epik_Ionization_Penalty>
0.00776518

> <r_epik_Ionization_Penalty_Charging>
0

> <r_epik_Ionization_Penalty_Neutral>
0.00776518

> <r_epik_State_Penalty>
0.00581346

> <r_epik_Charging_Adjusted_Penalty>
0.00581346

> <i_epik_Tot_Q>
0

> <i_epik_Tot_abs_Q>
0

> <i_f3d_flags>
0

> <s_lp_Force_Field>
OPLS_2005

> <r_lp_Energy>
22.8633

> <b_lp_Chiralities_Consistent>
1

> <s_lp_Variant>
ZINC18847043-1

$$$$
ZINC01909090
                    3D
 Structure written by MMmdl.
 21 20  0  0  1  0            999 V2000
   -0.8084    3.4275   -1.0312 C   0  0  0  0  0  0
   -0.3073    2.1021   -1.0281 O   0  0  0  0  0  0
   -0.8525    1.1903   -0.2058 C   0  0  0  0  0  0
   -1.7839    1.3870    0.5753 O   0  0  0  0  0  0
   -0.1958   -0.1819   -0.3308 C   0  0  0  0  0  0
    1.2798   -0.1531    0.1103 C   0  0  0  0  0  0
    1.7969   -1.5058    0.6093 C   0  0  0  0  0  0
    1.1686   -2.5501    0.4389 O   0  0  0  0  0  0
    3.1422   -1.5145    1.3306 C   0  0  0  0  0  0
    4.2326   -1.0110    0.5182 N   0  0  0  0  0  0
   -0.2551    4.0309   -1.7509 H   0  0  0  0  0  0
   -0.7007    3.8865   -0.0477 H   0  0  0  0  0  0
   -1.8624    3.4445   -1.3116 H   0  0  0  0  0  0
   -0.7674   -0.8793    0.2829 H   0  0  0  0  0  0
   -0.2764   -0.5287   -1.3612 H   0  0  0  0  0  0
    1.9068    0.1823   -0.7162 H   0  0  0  0  0  0
    1.4158    0.5676    0.9176 H   0  0  0  0  0  0
    3.0609   -0.9036    2.2298 H   0  0  0  0  0  0
    3.3770   -2.5300    1.6511 H   0  0  0  0  0  0
    5.0867   -1.0208    1.0573 H   0  0  0  0  0  0
    4.3832   -1.6335   -0.2629 H   0  0  0  0  0  0
  1  2  1  0  0  0
  1 11  1  0  0  0
  1 12  1  0  0  0
  1 13  1  0  0  0
  2  3  1  0  0  0
  3  4  2  0  0  0
  3  5  1  0  0  0
  5  6  1  0  0  0
  5 14  1  0  0  0
  5 15  1  0  0  0
  6  7  1  0  0  0
  6 16  1  0  0  0
  6 17  1  0  0  0
  7  8  2  0  0  0
  7  9  1  0  0  0
  9 10  1  0  0  0
  9 18  1  0  0  0
  9 19  1  0  0  0
 10 20  1  0  0  0
 10 21  1  0  0  0
M  END
> <s_m_entry_id>
84

> <s_m_entry_name>
biosynth_p1.0.sdf.77

> <s_m_Source_Path>
/Users/Sebastito/Downloads

> <s_m_Source_File>
biosynth_p1.0.sdf.gz

> <i_m_Source_File_Index>
77

> <chiral flag>
0

> <version>
0

> <i_m_ct_enhanced_stereo_status>
0

> <s_m_source_file>
ligprep_vs.maegz

> <i_m_source_file_index>
77

> <i_lp_mmshare_version>
37011

> <i_f3d_flags>
0

> <r_lp_tautomer_probability>
0.9999

> <r_epik_Ionization_Penalty>
0.356017

> <r_epik_Ionization_Penalty_Charging>
0

> <r_epik_Ionization_Penalty_Neutral>
0.356017

> <r_epik_State_Penalty>
0.352548

> <r_epik_Charging_Adjusted_Penalty>
0.352548

> <i_epik_Tot_Q>
0

> <i_epik_Tot_abs_Q>
0

> <s_epik_Chemistry_Notes>
This compound has an ester and may undergo hydrolysis at high or low pH.

> <s_lp_Force_Field>
OPLS_2005

> <r_lp_Energy>
1.52592

> <b_lp_Chiralities_Consistent>
1

> <s_lp_Variant>
ZINC01909090-1

$$$$
ZINC01909090
                    3D
 Structure written by MMmdl.
 22 21  0  0  1  0            999 V2000
   -1.0398    3.3851    1.0961 C   0  0  0  0  0  0
   -0.8456    1.9901    0.9389 O   0  0  0  0  0  0
   -0.2720    1.5241   -0.1826 C   0  0  0  0  0  0
    0.1247    2.2046   -1.1287 O   0  0  0  0  0  0
   -0.1435    0.0032   -0.1888 C   0  0  0  0  0  0
    0.8460   -0.4913    0.8838 C   0  0  0  0  0  0
    1.5228   -1.8201    0.5298 C   0  0  0  0  0  0
    1.1517   -2.5114   -0.4174 O   0  0  0  0  0  0
    2.6790   -2.2768    1.4156 C   0  0  0  0  0  0
    3.8008   -1.3385    1.2415 N   0  3  0  0  0  0
   -1.5137    3.5871    2.0566 H   0  0  0  0  0  0
   -1.6837    3.7794    0.3091 H   0  0  0  0  0  0
   -0.0874    3.9160    1.0680 H   0  0  0  0  0  0
   -1.1260   -0.4433   -0.0335 H   0  0  0  0  0  0
    0.1842   -0.2948   -1.1855 H   0  0  0  0  0  0
    1.6269    0.2538    1.0379 H   0  0  0  0  0  0
    0.3306   -0.6030    1.8380 H   0  0  0  0  0  0
    2.3647   -2.2926    2.4592 H   0  0  0  0  0  0
    2.9911   -3.2843    1.1397 H   0  0  0  0  0  0
    4.5761   -1.6284    1.8201 H   0  0  0  0  0  0
    3.5094   -0.4092    1.5089 H   0  0  0  0  0  0
    4.0869   -1.3352    0.2727 H   0  0  0  0  0  0
  1  2  1  0  0  0
  1 11  1  0  0  0
  1 12  1  0  0  0
  1 13  1  0  0  0
  2  3  1  0  0  0
  3  4  2  0  0  0
  3  5  1  0  0  0
  5  6  1  0  0  0
  5 14  1  0  0  0
  5 15  1  0  0  0
  6  7  1  0  0  0
  6 16  1  0  0  0
  6 17  1  0  0  0
  7  8  2  0  0  0
  7  9  1  0  0  0
  9 10  1  0  0  0
  9 18  1  0  0  0
  9 19  1  0  0  0
 10 20  1  0  0  0
 10 21  1  0  0  0
 10 22  1  0  0  0
M  CHG  1  10   1
M  END
> <s_m_entry_id>
84

> <s_m_entry_name>
biosynth_p1.0.sdf.77

> <s_m_Source_Path>
/Users/Sebastito/Downloads

> <s_m_Source_File>
biosynth_p1.0.sdf.gz

> <i_m_Source_File_Index>
77

> <chiral flag>
0

> <version>
0

> <i_m_ct_enhanced_stereo_status>
0

> <s_m_source_file>
ligprep_vs.maegz

> <i_m_source_file_index>
77

> <i_lp_mmshare_version>
37011

> <i_f3d_flags>
0

> <r_lp_tautomer_probability>
0.9999

> <r_epik_Ionization_Penalty>
0.470904

> <r_epik_Ionization_Penalty_Charging>
0.470904

> <r_epik_Ionization_Penalty_Neutral>
1.15064e-09

> <r_epik_State_Penalty>
0.475142

> <r_epik_Charging_Adjusted_Penalty>
0.946046

> <i_epik_Tot_Q>
1

> <i_epik_Tot_abs_Q>
1

> <s_epik_Chemistry_Notes>
This compound has an ester and may undergo hydrolysis at high or low pH.

> <s_lp_Force_Field>
OPLS_2005

> <r_lp_Energy>
0.850708

> <b_lp_Chiralities_Consistent>
1

> <s_lp_Variant>
ZINC01909090-2

$$$$
ZINC04617749
                    3D
 Structure written by MMmdl.
 32 33  0  0  1  0            999 V2000
   -2.3157    0.8250   -0.1640 C   0  0  0  0  0  0
   -0.6398    1.5762   -0.1122 S   0  0  0  0  0  0
   -0.4751    2.2933   -1.3862 O   0  0  0  0  0  0
   -0.5879    2.3761    1.1214 O   0  0  0  0  0  0
    0.2894    0.2518   -0.0270 N   0  5  0  0  0  0
    1.6337    0.2061    0.0059 C   0  0  0  0  0  0
    2.4393    1.3702    0.0005 C   0  0  0  0  0  0
    3.8439    1.2922    0.0334 C   0  0  0  0  0  0
    4.4924    0.0399    0.0767 C   0  0  0  0  0  0
    3.6994   -1.1274    0.0854 C   0  0  0  0  0  0
    2.2910   -1.0478    0.0439 C   0  0  0  0  0  0
    1.5543   -2.2069    0.0555 O   0  0  0  0  0  0
    1.6608   -3.0318   -1.0350 C   0  0  0  0  0  0
    1.3454   -2.5701   -2.3322 C   0  0  0  0  0  0
    1.4561   -3.4360   -3.4376 C   0  0  0  0  0  0
    1.8765   -4.7671   -3.2507 C   0  0  0  0  0  0
    2.1840   -5.2330   -1.9576 C   0  0  0  0  0  0
    2.0746   -4.3668   -0.8520 C   0  0  0  0  0  0
    5.9654   -0.0478    0.1122 N   0  3  0  0  0  0
    6.4807   -1.1601    0.1667 O   0  0  0  0  0  0
    6.6114    0.9950    0.0854 O   0  5  0  0  0  0
   -3.0627    1.6154   -0.2258 H   0  0  0  0  0  0
   -2.4806    0.2394    0.7400 H   0  0  0  0  0  0
   -2.3978    0.1791   -1.0379 H   0  0  0  0  0  0
    1.9891    2.3516   -0.0289 H   0  0  0  0  0  0
    4.4154    2.2085    0.0270 H   0  0  0  0  0  0
    4.1641   -2.1017    0.1209 H   0  0  0  0  0  0
    1.0202   -1.5506   -2.4805 H   0  0  0  0  0  0
    1.2178   -3.0783   -4.4284 H   0  0  0  0  0  0
    1.9615   -5.4308   -4.0985 H   0  0  0  0  0  0
    2.5039   -6.2544   -1.8133 H   0  0  0  0  0  0
    2.3113   -4.7255    0.1388 H   0  0  0  0  0  0
  1  2  1  0  0  0
  1 22  1  0  0  0
  1 23  1  0  0  0
  1 24  1  0  0  0
  2  3  2  0  0  0
  2  4  2  0  0  0
  2  5  1  0  0  0
  5  6  1  0  0  0
  6 11  2  0  0  0
  6  7  1  0  0  0
  7  8  2  0  0  0
  7 25  1  0  0  0
  8  9  1  0  0  0
  8 26  1  0  0  0
  9 10  2  0  0  0
  9 19  1  0  0  0
 10 11  1  0  0  0
 10 27  1  0  0  0
 11 12  1  0  0  0
 12 13  1  0  0  0
 13 18  2  0  0  0
 13 14  1  0  0  0
 14 15  2  0  0  0
 14 28  1  0  0  0
 15 16  1  0  0  0
 15 29  1  0  0  0
 16 17  2  0  0  0
 16 30  1  0  0  0
 17 18  1  0  0  0
 17 31  1  0  0  0
 18 32  1  0  0  0
 19 20  2  0  0  0
 19 21  1  0  0  0
M  CHG  3   5  -1  19   1  21  -1
M  END
> <s_m_entry_id>
85

> <s_m_entry_name>
biosynth_p1.0.sdf.78

> <s_m_Source_Path>
/Users/Sebastito/Downloads

> <s_m_Source_File>
biosynth_p1.0.sdf.gz

> <i_m_Source_File_Index>
78

> <chiral flag>
0

> <version>
0

> <i_m_ct_enhanced_stereo_status>
0

> <s_m_source_file>
ligprep_vs.maegz

> <i_m_source_file_index>
78

> <i_lp_mmshare_version>
37011

> <r_lp_tautomer_probability>
1

> <r_epik_Ionization_Penalty>
0.209272

> <r_epik_Ionization_Penalty_Charging>
0.209272

> <r_epik_Ionization_Penalty_Neutral>
0

> <r_epik_State_Penalty>
0.199318

> <r_epik_Charging_Adjusted_Penalty>
0.40859

> <i_epik_Tot_Q>
-1

> <i_epik_Tot_abs_Q>
3

> <i_f3d_flags>
0

> <s_lp_Force_Field>
OPLS_2005

> <r_lp_Energy>
16.1985

> <b_lp_Chiralities_Consistent>
1

> <s_lp_Variant>
ZINC04617749-1

$$$$
ZINC04617749
                    3D
 Structure written by MMmdl.
 33 34  0  0  1  0            999 V2000
   -2.4886    0.3019    0.3984 C   0  0  0  0  0  0
   -0.9058    1.2180    0.2162 S   0  0  0  0  0  0
   -0.9264    1.9930   -1.0335 O   0  0  0  0  0  0
   -0.5531    1.8465    1.4982 O   0  0  0  0  0  0
    0.2351   -0.0617   -0.0261 N   0  0  0  0  0  0
    1.6316    0.0083   -0.0604 C   0  0  0  0  0  0
    2.2951    1.2514   -0.1279 C   0  0  0  0  0  0
    3.7009    1.3075   -0.1709 C   0  0  0  0  0  0
    4.4698    0.1217   -0.1510 C   0  0  0  0  0  0
    3.7995   -1.1211   -0.0836 C   0  0  0  0  0  0
    2.3923   -1.1832   -0.0301 C   0  0  0  0  0  0
    1.7862   -2.4135    0.0350 O   0  0  0  0  0  0
    1.2327   -2.7871    1.2344 C   0  0  0  0  0  0
    1.9904   -2.7888    2.4269 C   0  0  0  0  0  0
    1.3941   -3.1732    3.6437 C   0  0  0  0  0  0
    0.0412   -3.5629    3.6738 C   0  0  0  0  0  0
   -0.7148   -3.5714    2.4858 C   0  0  0  0  0  0
   -0.1189   -3.1874    1.2690 C   0  0  0  0  0  0
    5.9442    0.1793   -0.1991 N   0  3  0  0  0  0
    6.5685   -0.8764   -0.1689 O   0  0  0  0  0  0
    6.4808    1.2806   -0.2667 O   0  5  0  0  0  0
   -3.2985    1.0108    0.5685 H   0  0  0  0  0  0
   -2.4210   -0.3796    1.2463 H   0  0  0  0  0  0
   -2.6897   -0.2656   -0.5100 H   0  0  0  0  0  0
    1.7351    2.1743   -0.1512 H   0  0  0  0  0  0
    4.1804    2.2739   -0.2226 H   0  0  0  0  0  0
    4.3594   -2.0446   -0.0664 H   0  0  0  0  0  0
    3.0291   -2.4931    2.4134 H   0  0  0  0  0  0
    1.9749   -3.1690    4.5544 H   0  0  0  0  0  0
   -0.4156   -3.8574    4.6071 H   0  0  0  0  0  0
   -1.7517   -3.8728    2.5079 H   0  0  0  0  0  0
   -0.7023   -3.1941    0.3600 H   0  0  0  0  0  0
   -0.1418   -0.9980   -0.0168 H   0  0  0  0  0  0
  1  2  1  0  0  0
  1 22  1  0  0  0
  1 23  1  0  0  0
  1 24  1  0  0  0
  2  3  2  0  0  0
  2  4  2  0  0  0
  2  5  1  0  0  0
  5  6  1  0  0  0
  5 33  1  0  0  0
  6 11  2  0  0  0
  6  7  1  0  0  0
  7  8  2  0  0  0
  7 25  1  0  0  0
  8  9  1  0  0  0
  8 26  1  0  0  0
  9 10  2  0  0  0
  9 19  1  0  0  0
 10 11  1  0  0  0
 10 27  1  0  0  0
 11 12  1  0  0  0
 12 13  1  0  0  0
 13 18  2  0  0  0
 13 14  1  0  0  0
 14 15  2  0  0  0
 14 28  1  0  0  0
 15 16  1  0  0  0
 15 29  1  0  0  0
 16 17  2  0  0  0
 16 30  1  0  0  0
 17 18  1  0  0  0
 17 31  1  0  0  0
 18 32  1  0  0  0
 19 20  2  0  0  0
 19 21  1  0  0  0
M  CHG  2  19   1  21  -1
M  END
> <s_m_entry_id>
85

> <s_m_entry_name>
biosynth_p1.0.sdf.78

> <s_m_Source_Path>
/Users/Sebastito/Downloads

> <s_m_Source_File>
biosynth_p1.0.sdf.gz

> <i_m_Source_File_Index>
78

> <chiral flag>
0

> <version>
0

> <i_m_ct_enhanced_stereo_status>
0

> <s_m_source_file>
ligprep_vs.maegz

> <i_m_source_file_index>
78

> <i_lp_mmshare_version>
37011

> <r_lp_tautomer_probability>
1

> <r_epik_Ionization_Penalty>
0.718154

> <r_epik_Ionization_Penalty_Charging>
0

> <r_epik_Ionization_Penalty_Neutral>
0.718154

> <r_epik_State_Penalty>
0.742336

> <r_epik_Charging_Adjusted_Penalty>
0.742336

> <i_epik_Tot_Q>
0

> <i_epik_Tot_abs_Q>
2

> <i_f3d_flags>
0

> <s_lp_Force_Field>
OPLS_2005

> <r_lp_Energy>
7.44249

> <b_lp_Chiralities_Consistent>
1

> <s_lp_Variant>
ZINC04617749-2

$$$$
ZINC03953037
                    3D
 Structure written by MMmdl.
 45 46  0  0  1  0            999 V2000
   -3.6207   -4.0120   -2.4264 C   0  0  0  0  0  0
   -3.0491   -3.1402   -1.3047 C   0  0  0  0  0  0
   -2.3926   -1.9345   -1.8517 N   0  3  0  0  0  0
   -1.8626   -0.9960   -0.8369 C   0  0  1  0  0  0
   -1.8100   -1.5086    0.1252 H   0  0  0  0  0  0
   -0.4067   -0.6265   -1.2245 C   0  0  0  0  0  0
    0.1240    0.4197   -0.3399 N   0  0  0  0  0  0
   -0.6398    1.9580   -0.4593 S   0  0  0  0  0  0
   -0.3057    2.5425   -1.7668 O   0  0  0  0  0  0
   -0.4166    2.6949    0.7938 O   0  0  0  0  0  0
   -2.3401    1.4862   -0.5206 C   0  0  0  0  0  0
   -2.7878    0.1987   -0.6894 C   0  0  0  0  0  0
   -4.2185    0.1459   -0.6609 C   0  0  0  0  0  0
   -4.8050    1.3724   -0.4823 C   0  0  0  0  0  0
   -3.6255    2.6453   -0.3414 S   0  0  0  0  0  0
   -6.5464    1.7169   -0.4111 S   0  0  0  0  0  0
   -7.2359    0.5641   -1.0109 O   0  0  0  0  0  0
   -6.8343    2.1525    0.9637 O   0  0  0  0  0  0
   -6.7523    3.0685   -1.4554 N   0  0  0  0  0  0
    1.5723    0.3803   -0.0916 C   0  0  0  0  0  0
    1.9066   -0.5810    1.0609 C   0  0  0  0  0  0
    1.3801   -0.0994    2.4203 C   0  0  0  0  0  0
    1.7479   -1.0404    3.4142 O   0  0  0  0  0  0
    1.2933   -0.6715    4.7045 C   0  0  0  0  0  0
   -4.0920   -4.9068   -2.0190 H   0  0  0  0  0  0
   -2.8390   -4.3333   -3.1154 H   0  0  0  0  0  0
   -4.3747   -3.4724   -3.0005 H   0  0  0  0  0  0
   -3.8466   -2.8534   -0.6193 H   0  0  0  0  0  0
   -2.3222   -3.7127   -0.7272 H   0  0  0  0  0  0
    0.2219   -1.5168   -1.1771 H   0  0  0  0  0  0
   -0.3607   -0.2641   -2.2528 H   0  0  0  0  0  0
   -4.7722   -0.7742   -0.7674 H   0  0  0  0  0  0
   -6.5347    2.8469   -2.4265 H   0  0  0  0  0  0
    2.0904    0.0833   -1.0043 H   0  0  0  0  0  0
    1.9319    1.3809    0.1520 H   0  0  0  0  0  0
    1.5175   -1.5768    0.8468 H   0  0  0  0  0  0
    2.9901   -0.6881    1.1238 H   0  0  0  0  0  0
    1.7964    0.8806    2.6591 H   0  0  0  0  0  0
    0.2939    0.0015    2.3924 H   0  0  0  0  0  0
    1.6013   -1.4238    5.4305 H   0  0  0  0  0  0
    0.2053   -0.6011    4.7343 H   0  0  0  0  0  0
    1.7146    0.2860    5.0129 H   0  0  0  0  0  0
   -1.6198   -2.2444   -2.4234 H   0  0  0  0  0  0
   -6.2733    3.9008   -1.1119 H   0  0  0  0  0  0
   -3.0449   -1.4371   -2.4409 H   0  0  0  0  0  0
  1  2  1  0  0  0
  1 25  1  0  0  0
  1 26  1  0  0  0
  1 27  1  0  0  0
  2  3  1  0  0  0
  2 28  1  0  0  0
  2 29  1  0  0  0
  3  4  1  0  0  0
  3 43  1  0  0  0
  3 45  1  0  0  0
  4  5  1  0  0  0
  4 12  1  0  0  0
  4  6  1  0  0  0
  6  7  1  0  0  0
  6 30  1  0  0  0
  6 31  1  0  0  0
  7  8  1  0  0  0
  7 20  1  0  0  0
  8  9  2  0  0  0
  8 10  2  0  0  0
  8 11  1  0  0  0
 11 15  1  0  0  0
 11 12  2  0  0  0
 12 13  1  0  0  0
 13 14  2  0  0  0
 13 32  1  0  0  0
 14 15  1  0  0  0
 14 16  1  0  0  0
 16 17  2  0  0  0
 16 18  2  0  0  0
 16 19  1  0  0  0
 19 33  1  0  0  0
 19 44  1  0  0  0
 20 21  1  0  0  0
 20 34  1  0  0  0
 20 35  1  0  0  0
 21 22  1  0  0  0
 21 36  1  0  0  0
 21 37  1  0  0  0
 22 23  1  0  0  0
 22 38  1  0  0  0
 22 39  1  0  0  0
 23 24  1  0  0  0
 24 40  1  0  0  0
 24 41  1  0  0  0
 24 42  1  0  0  0
M  CHG  1   3   1
M  END
> <s_m_entry_id>
86

> <s_m_entry_name>
biosynth_p1.0.sdf.79

> <s_m_Source_Path>
/Users/Sebastito/Downloads

> <s_m_Source_File>
biosynth_p1.0.sdf.gz

> <i_m_Source_File_Index>
79

> <chiral flag>
1

> <version>
0

> <i_m_ct_enhanced_stereo_status>
0

> <s_m_source_file>
ligprep_vs.maegz

> <i_m_source_file_index>
79

> <i_lp_mmshare_version>
37011

> <r_epik_Ionization_Penalty>
0.0654893

> <r_epik_Ionization_Penalty_Charging>
0.0117852

> <r_epik_Ionization_Penalty_Neutral>
0.0537041

> <r_epik_State_Penalty>
0.0456635

> <r_epik_Charging_Adjusted_Penalty>
0.0574487

> <i_epik_Tot_Q>
1

> <i_epik_Tot_abs_Q>
1

> <i_f3d_flags>
0

> <s_lp_Force_Field>
OPLS_2005

> <r_lp_Energy>
12.5657

> <b_lp_Chiralities_Consistent>
1

> <s_lp_Variant>
ZINC03953037-1

$$$$
ZINC03953037
                    3D
 Structure written by MMmdl.
 44 45  0  0  1  0            999 V2000
   -4.2695   -3.4282   -3.4442 C   0  0  0  0  0  0
   -3.4638   -3.0256   -2.2060 C   0  0  0  0  0  0
   -2.7411   -1.7567   -2.4331 N   0  3  0  0  0  0
   -2.0196   -1.2298   -1.2531 C   0  0  1  0  0  0
   -1.9113   -2.0308   -0.5194 H   0  0  0  0  0  0
   -0.5888   -0.8244   -1.6884 C   0  0  0  0  0  0
    0.1601   -0.2228   -0.5712 N   0  0  0  0  0  0
   -0.4677    1.2976   -0.0281 S   0  0  0  0  0  0
   -0.1778    2.3089   -1.0561 O   0  0  0  0  0  0
   -0.0910    1.5055    1.3780 O   0  0  0  0  0  0
   -2.2101    1.0086   -0.0737 C   0  0  0  0  0  0
   -2.8036   -0.1010   -0.6195 C   0  0  0  0  0  0
   -4.2265   -0.0490   -0.4757 C   0  0  0  0  0  0
   -4.6687    1.0891    0.1484 C   0  0  0  0  0  0
   -3.3520    2.1342    0.6034 S   0  0  0  0  0  0
   -6.3536    1.5400    0.4935 S   0  0  0  0  0  0
   -6.4126    1.5305    1.9629 O   0  0  0  0  0  0
   -6.5058    2.8339   -0.1889 O   0  0  0  0  0  0
   -7.3006    0.4049   -0.1542 N   0  5  0  0  0  0
    1.6264   -0.3580   -0.6884 C   0  0  0  0  0  0
    2.3345   -0.3804    0.6795 C   0  0  0  0  0  0
    1.8345   -1.4891    1.6189 C   0  0  0  0  0  0
    2.0343   -2.7546    1.0111 O   0  0  0  0  0  0
    1.5459   -3.8209    1.8057 C   0  0  0  0  0  0
   -4.7973   -4.3669   -3.2743 H   0  0  0  0  0  0
   -3.6222   -3.5627   -4.3113 H   0  0  0  0  0  0
   -5.0133   -2.6703   -3.6929 H   0  0  0  0  0  0
   -4.1311   -2.9285   -1.3495 H   0  0  0  0  0  0
   -2.7440   -3.8079   -1.9626 H   0  0  0  0  0  0
   -0.0740   -1.7117   -2.0590 H   0  0  0  0  0  0
   -0.6211   -0.1107   -2.5133 H   0  0  0  0  0  0
   -4.8782   -0.8314   -0.8326 H   0  0  0  0  0  0
    1.8798   -1.2782   -1.2154 H   0  0  0  0  0  0
    2.0121    0.4596   -1.2986 H   0  0  0  0  0  0
    3.4036   -0.5179    0.5141 H   0  0  0  0  0  0
    2.2437    0.5869    1.1713 H   0  0  0  0  0  0
    2.3799   -1.4444    2.5627 H   0  0  0  0  0  0
    0.7785   -1.3414    1.8507 H   0  0  0  0  0  0
    1.7259   -4.7681    1.2973 H   0  0  0  0  0  0
    0.4719   -3.7279    1.9720 H   0  0  0  0  0  0
    2.0489   -3.8563    2.7728 H   0  0  0  0  0  0
   -2.0681   -1.9166   -3.1685 H   0  0  0  0  0  0
   -8.2754    0.6626    0.0409 H   0  0  0  0  0  0
   -3.3952   -1.0531   -2.7458 H   0  0  0  0  0  0
  1  2  1  0  0  0
  1 25  1  0  0  0
  1 26  1  0  0  0
  1 27  1  0  0  0
  2  3  1  0  0  0
  2 28  1  0  0  0
  2 29  1  0  0  0
  3  4  1  0  0  0
  3 42  1  0  0  0
  3 44  1  0  0  0
  4  5  1  0  0  0
  4 12  1  0  0  0
  4  6  1  0  0  0
  6  7  1  0  0  0
  6 30  1  0  0  0
  6 31  1  0  0  0
  7  8  1  0  0  0
  7 20  1  0  0  0
  8  9  2  0  0  0
  8 10  2  0  0  0
  8 11  1  0  0  0
 11 15  1  0  0  0
 11 12  2  0  0  0
 12 13  1  0  0  0
 13 14  2  0  0  0
 13 32  1  0  0  0
 14 15  1  0  0  0
 14 16  1  0  0  0
 16 17  2  0  0  0
 16 18  2  0  0  0
 16 19  1  0  0  0
 19 43  1  0  0  0
 20 21  1  0  0  0
 20 33  1  0  0  0
 20 34  1  0  0  0
 21 22  1  0  0  0
 21 35  1  0  0  0
 21 36  1  0  0  0
 22 23  1  0  0  0
 22 37  1  0  0  0
 22 38  1  0  0  0
 23 24  1  0  0  0
 24 39  1  0  0  0
 24 40  1  0  0  0
 24 41  1  0  0  0
M  CHG  2   3   1  19  -1
M  END
> <s_m_entry_id>
86

> <s_m_entry_name>
biosynth_p1.0.sdf.79

> <s_m_Source_Path>
/Users/Sebastito/Downloads

> <s_m_Source_File>
biosynth_p1.0.sdf.gz

> <i_m_Source_File_Index>
79

> <chiral flag>
1

> <version>
0

> <i_m_ct_enhanced_stereo_status>
0

> <s_m_source_file>
ligprep_vs.maegz

> <i_m_source_file_index>
79

> <i_lp_mmshare_version>
37011

> <r_epik_Ionization_Penalty>
1.4609

> <r_epik_Ionization_Penalty_Charging>
1.4609

> <r_epik_Ionization_Penalty_Neutral>
1.34216e-11

> <r_epik_State_Penalty>
1.73445

> <r_epik_Charging_Adjusted_Penalty>
3.19535

> <i_epik_Tot_Q>
0

> <i_epik_Tot_abs_Q>
2

> <i_f3d_flags>
0

> <s_lp_Force_Field>
OPLS_2005

> <r_lp_Energy>
5.90779

> <b_lp_Chiralities_Consistent>
1

> <s_lp_Variant>
ZINC03953037-2

$$$$
ZINC03953037
                    3D
 Structure written by MMmdl.
 44 45  0  0  1  0            999 V2000
   -3.9906   -3.5312   -3.4007 C   0  0  0  0  0  0
   -3.3809   -2.9739   -2.1113 C   0  0  0  0  0  0
   -2.5838   -1.7959   -2.4208 N   0  0  0  0  0  0
   -2.0866   -1.1558   -1.2084 C   0  0  1  0  0  0
   -1.9865   -1.9349   -0.4506 H   0  0  0  0  0  0
   -0.6342   -0.7150   -1.5277 C   0  0  0  0  0  0
    0.0577   -0.2257   -0.3186 N   0  0  0  0  0  0
   -0.6181    1.2158    0.3698 S   0  0  0  0  0  0
   -0.2126    2.3583   -0.4633 O   0  0  0  0  0  0
   -0.3901    1.2115    1.8230 O   0  0  0  0  0  0
   -2.3504    0.9919    0.1068 C   0  0  0  0  0  0
   -2.9067   -0.0406   -0.6021 C   0  0  0  0  0  0
   -4.3313    0.0784   -0.6619 C   0  0  0  0  0  0
   -4.8092    1.1845   -0.0075 C   0  0  0  0  0  0
   -3.5290    2.1174    0.7165 S   0  0  0  0  0  0
   -6.5089    1.6744    0.1593 S   0  0  0  0  0  0
   -6.6606    2.9622   -0.5345 O   0  0  0  0  0  0
   -7.3224    0.5049   -0.2071 O   0  0  0  0  0  0
   -6.7008    1.9461    1.8471 N   0  0  0  0  0  0
    1.5289   -0.3032   -0.4247 C   0  0  0  0  0  0
    2.2290   -0.2134    0.9429 C   0  0  0  0  0  0
    3.7482   -0.4401    0.8504 C   0  0  0  0  0  0
    4.0835   -1.7295    0.3535 O   0  0  0  0  0  0
    3.9186   -2.7778    1.2954 C   0  0  0  0  0  0
   -4.5868   -4.4198   -3.1927 H   0  0  0  0  0  0
   -3.2168   -3.8115   -4.1161 H   0  0  0  0  0  0
   -4.6431   -2.7994   -3.8786 H   0  0  0  0  0  0
   -4.1732   -2.7256   -1.4054 H   0  0  0  0  0  0
   -2.7503   -3.7289   -1.6401 H   0  0  0  0  0  0
   -0.0904   -1.5651   -1.9432 H   0  0  0  0  0  0
   -0.6218    0.0678   -2.2880 H   0  0  0  0  0  0
   -4.9551   -0.6374   -1.1751 H   0  0  0  0  0  0
   -6.6385    1.0739    2.3714 H   0  0  0  0  0  0
    1.8068   -1.2499   -0.8889 H   0  0  0  0  0  0
    1.8839    0.4870   -1.0873 H   0  0  0  0  0  0
    2.0732    0.7772    1.3683 H   0  0  0  0  0  0
    1.7795   -0.9183    1.6420 H   0  0  0  0  0  0
    4.1766    0.2982    0.1720 H   0  0  0  0  0  0
    4.2216   -0.2729    1.8189 H   0  0  0  0  0  0
    4.2600   -3.7149    0.8558 H   0  0  0  0  0  0
    2.8745   -2.9087    1.5788 H   0  0  0  0  0  0
    4.5076   -2.5978    2.1955 H   0  0  0  0  0  0
   -3.1741   -1.1394   -2.9116 H   0  0  0  0  0  0
   -7.5743    2.4335    2.0449 H   0  0  0  0  0  0
  1  2  1  0  0  0
  1 25  1  0  0  0
  1 26  1  0  0  0
  1 27  1  0  0  0
  2  3  1  0  0  0
  2 28  1  0  0  0
  2 29  1  0  0  0
  3  4  1  0  0  0
  3 43  1  0  0  0
  4  5  1  0  0  0
  4 12  1  0  0  0
  4  6  1  0  0  0
  6  7  1  0  0  0
  6 30  1  0  0  0
  6 31  1  0  0  0
  7  8  1  0  0  0
  7 20  1  0  0  0
  8  9  2  0  0  0
  8 10  2  0  0  0
  8 11  1  0  0  0
 11 15  1  0  0  0
 11 12  2  0  0  0
 12 13  1  0  0  0
 13 14  2  0  0  0
 13 32  1  0  0  0
 14 15  1  0  0  0
 14 16  1  0  0  0
 16 17  2  0  0  0
 16 18  2  0  0  0
 16 19  1  0  0  0
 19 33  1  0  0  0
 19 44  1  0  0  0
 20 21  1  0  0  0
 20 34  1  0  0  0
 20 35  1  0  0  0
 21 22  1  0  0  0
 21 36  1  0  0  0
 21 37  1  0  0  0
 22 23  1  0  0  0
 22 38  1  0  0  0
 22 39  1  0  0  0
 23 24  1  0  0  0
 24 40  1  0  0  0
 24 41  1  0  0  0
 24 42  1  0  0  0
M  END
> <s_m_entry_id>
86

> <s_m_entry_name>
biosynth_p1.0.sdf.79

> <s_m_Source_Path>
/Users/Sebastito/Downloads

> <s_m_Source_File>
biosynth_p1.0.sdf.gz

> <i_m_Source_File_Index>
79

> <chiral flag>
1

> <version>
0

> <i_m_ct_enhanced_stereo_status>
0

> <s_m_source_file>
ligprep_vs.maegz

> <i_m_source_file_index>
79

> <i_lp_mmshare_version>
37011

> <r_epik_Ionization_Penalty>
2.34261

> <r_epik_Ionization_Penalty_Charging>
0

> <r_epik_Ionization_Penalty_Neutral>
2.34261

> <r_epik_State_Penalty>
2.31634

> <r_epik_Charging_Adjusted_Penalty>
2.31634

> <i_epik_Tot_Q>
0

> <i_epik_Tot_abs_Q>
0

> <i_f3d_flags>
0

> <s_lp_Force_Field>
OPLS_2005

> <r_lp_Energy>
14.0449

> <b_lp_Chiralities_Consistent>
1

> <s_lp_Variant>
ZINC03953037-3

$$$$
ZINC05386186
                    3D
 Structure written by MMmdl.
 34 36  0  0  1  0            999 V2000
   -1.2312    0.1898    0.0953 C   0  0  0  0  0  0
   -0.0123    0.1175    0.0496 C   0  0  0  0  0  0
    1.4730    0.0309    0.0127 C   0  0  0  0  0  0
    2.0023    0.7012    1.3084 C   0  0  0  0  0  0
    2.8475    0.0258    2.2277 C   0  0  0  0  0  0
    3.3128    0.6680    3.3914 C   0  0  0  0  0  0
    2.9474    1.9987    3.6603 C   0  0  0  0  0  0
    2.1150    2.6877    2.7614 C   0  0  0  0  0  0
    1.6488    2.0448    1.5993 C   0  0  0  0  0  0
    1.9916    0.7403   -1.2651 C   0  0  0  0  0  0
    3.1155    1.6059   -1.2333 C   0  0  0  0  0  0
    3.5915    2.2209   -2.4071 C   0  0  0  0  0  0
    2.9639    1.9721   -3.6403 C   0  0  0  0  0  0
    1.8646    1.0979   -3.6984 C   0  0  0  0  0  0
    1.3883    0.4844   -2.5241 C   0  0  0  0  0  0
    1.8968   -1.3842   -0.0598 N   0  0  0  0  0  0
    3.0676   -1.8870   -0.6316 C   0  0  0  0  0  0
    3.0802   -3.2448   -0.4128 C   0  0  0  0  0  0
    1.3200   -2.4618    0.5099 C   0  0  0  0  0  0
   -2.2953    0.2515    0.1397 H   0  0  0  0  0  0
    3.1607   -0.9939    2.0664 H   0  0  0  0  0  0
    3.9538    0.1363    4.0791 H   0  0  0  0  0  0
    3.3064    2.4900    4.5527 H   0  0  0  0  0  0
    1.8344    3.7113    2.9614 H   0  0  0  0  0  0
    1.0168    2.5974    0.9192 H   0  0  0  0  0  0
    3.6406    1.8081   -0.3125 H   0  0  0  0  0  0
    4.4451    2.8809   -2.3608 H   0  0  0  0  0  0
    3.3311    2.4425   -4.5405 H   0  0  0  0  0  0
    1.3880    0.8924   -4.6456 H   0  0  0  0  0  0
    0.5531   -0.1960   -2.6024 H   0  0  0  0  0  0
    3.7835   -1.2574   -1.1388 H   0  0  0  0  0  0
    3.8159   -3.9781   -0.7084 H   0  0  0  0  0  0
    0.4075   -2.4104    1.0858 H   0  0  0  0  0  0
    1.9599   -3.6084    0.3247 N   0  0  0  0  0  0
  1  2  3  0  0  0
  1 20  1  0  0  0
  2  3  1  0  0  0
  3  4  1  0  0  0
  3 10  1  0  0  0
  3 16  1  0  0  0
  4  9  2  0  0  0
  4  5  1  0  0  0
  5  6  2  0  0  0
  5 21  1  0  0  0
  6  7  1  0  0  0
  6 22  1  0  0  0
  7  8  2  0  0  0
  7 23  1  0  0  0
  8  9  1  0  0  0
  8 24  1  0  0  0
  9 25  1  0  0  0
 10 15  2  0  0  0
 10 11  1  0  0  0
 11 12  2  0  0  0
 11 26  1  0  0  0
 12 13  1  0  0  0
 12 27  1  0  0  0
 13 14  2  0  0  0
 13 28  1  0  0  0
 14 15  1  0  0  0
 14 29  1  0  0  0
 15 30  1  0  0  0
 16 19  1  0  0  0
 16 17  1  0  0  0
 17 18  2  0  0  0
 17 31  1  0  0  0
 18 32  1  0  0  0
 18 34  1  0  0  0
 19 33  1  0  0  0
 19 34  2  0  0  0
M  END
> <s_m_entry_id>
87

> <s_m_entry_name>
biosynth_p1.0.sdf.80

> <s_m_Source_Path>
/Users/Sebastito/Downloads

> <s_m_Source_File>
biosynth_p1.0.sdf.gz

> <i_m_Source_File_Index>
80

> <chiral flag>
0

> <version>
0

> <i_m_ct_enhanced_stereo_status>
0

> <s_m_source_file>
ligprep_vs.maegz

> <i_m_source_file_index>
80

> <i_lp_mmshare_version>
37011

> <r_lp_tautomer_probability>
1

> <r_epik_Ionization_Penalty>
0.252591

> <r_epik_Ionization_Penalty_Charging>
0.252591

> <r_epik_Ionization_Penalty_Neutral>
0

> <r_epik_State_Penalty>
0.243995

> <r_epik_Charging_Adjusted_Penalty>
0.496587

> <i_epik_Tot_Q>
0

> <i_epik_Tot_abs_Q>
0

> <i_f3d_flags>
0

> <s_lp_Force_Field>
OPLS_2005

> <r_lp_Energy>
28.628

> <b_lp_Chiralities_Consistent>
1

> <s_lp_Variant>
ZINC05386186-1

$$$$
ZINC05386186
                    3D
 Structure written by MMmdl.
 35 37  0  0  1  0            999 V2000
   -1.2095    0.1823    0.1045 C   0  0  0  0  0  0
    0.0089    0.1010    0.0623 C   0  0  0  0  0  0
    1.4936    0.0169    0.0154 C   0  0  0  0  0  0
    2.0203    0.6928    1.3089 C   0  0  0  0  0  0
    2.8314    0.0101    2.2532 C   0  0  0  0  0  0
    3.2907    0.6575    3.4164 C   0  0  0  0  0  0
    2.9508    1.9995    3.6615 C   0  0  0  0  0  0
    2.1490    2.6945    2.7398 C   0  0  0  0  0  0
    1.6890    2.0466    1.5780 C   0  0  0  0  0  0
    1.9967    0.7310   -1.2678 C   0  0  0  0  0  0
    3.1189    1.5993   -1.2466 C   0  0  0  0  0  0
    3.5802    2.2188   -2.4240 C   0  0  0  0  0  0
    2.9390    1.9718   -3.6504 C   0  0  0  0  0  0
    1.8408    1.0955   -3.6983 C   0  0  0  0  0  0
    1.3801    0.4767   -2.5208 C   0  0  0  0  0  0
    1.9203   -1.4175   -0.0500 N   0  0  0  0  0  0
    1.2939   -2.5168    0.5019 C   0  0  0  0  0  0
    2.0816   -3.6067    0.2398 C   0  0  0  0  0  0
    3.0896   -1.8144   -0.5868 C   0  0  0  0  0  0
   -2.2731    0.2589    0.1406 H   0  0  0  0  0  0
    3.1209   -1.0195    2.1141 H   0  0  0  0  0  0
    3.9068    0.1216    4.1234 H   0  0  0  0  0  0
    3.3046    2.4946    4.5537 H   0  0  0  0  0  0
    1.8865    3.7262    2.9225 H   0  0  0  0  0  0
    1.0783    2.6033    0.8820 H   0  0  0  0  0  0
    3.6531    1.8014   -0.3307 H   0  0  0  0  0  0
    4.4319    2.8821   -2.3855 H   0  0  0  0  0  0
    3.2939    2.4465   -4.5534 H   0  0  0  0  0  0
    1.3523    0.8942   -4.6402 H   0  0  0  0  0  0
    0.5445   -0.2039   -2.5929 H   0  0  0  0  0  0
    0.3531   -2.4525    1.0291 H   0  0  0  0  0  0
    1.9548   -4.6509    0.4866 H   0  0  0  0  0  0
    3.8289   -1.1919   -1.0585 H   0  0  0  0  0  0
    3.1760   -3.1386   -0.4306 N   0  3  0  0  0  0
    3.9495   -3.7080   -0.7507 H   0  0  0  0  0  0
  1  2  3  0  0  0
  1 20  1  0  0  0
  2  3  1  0  0  0
  3  4  1  0  0  0
  3 10  1  0  0  0
  3 16  1  0  0  0
  4  9  2  0  0  0
  4  5  1  0  0  0
  5  6  2  0  0  0
  5 21  1  0  0  0
  6  7  1  0  0  0
  6 22  1  0  0  0
  7  8  2  0  0  0
  7 23  1  0  0  0
  8  9  1  0  0  0
  8 24  1  0  0  0
  9 25  1  0  0  0
 10 15  2  0  0  0
 10 11  1  0  0  0
 11 12  2  0  0  0
 11 26  1  0  0  0
 12 13  1  0  0  0
 12 27  1  0  0  0
 13 14  2  0  0  0
 13 28  1  0  0  0
 14 15  1  0  0  0
 14 29  1  0  0  0
 15 30  1  0  0  0
 16 19  1  0  0  0
 16 17  1  0  0  0
 17 18  2  0  0  0
 17 31  1  0  0  0
 18 32  1  0  0  0
 18 34  1  0  0  0
 19 33  1  0  0  0
 19 34  2  0  0  0
 34 35  1  0  0  0
M  CHG  1  34   1
M  END
> <s_m_entry_id>
87

> <s_m_entry_name>
biosynth_p1.0.sdf.80

> <s_m_Source_Path>
/Users/Sebastito/Downloads

> <s_m_Source_File>
biosynth_p1.0.sdf.gz

> <i_m_Source_File_Index>
80

> <chiral flag>
0

> <version>
0

> <i_m_ct_enhanced_stereo_status>
0

> <s_m_source_file>
ligprep_vs.maegz

> <i_m_source_file_index>
80

> <i_lp_mmshare_version>
37011

> <r_lp_tautomer_probability>
1

> <r_epik_Ionization_Penalty>
0.626941

> <r_epik_Ionization_Penalty_Charging>
0

> <r_epik_Ionization_Penalty_Neutral>
0.626941

> <r_epik_State_Penalty>
0.643457

> <r_epik_Charging_Adjusted_Penalty>
0.643457

> <i_epik_Tot_Q>
1

> <i_epik_Tot_abs_Q>
1

> <i_f3d_flags>
0

> <s_lp_Force_Field>
OPLS_2005

> <r_lp_Energy>
30.0355

> <b_lp_Chiralities_Consistent>
1

> <s_lp_Variant>
ZINC05386186-2

$$$$
ZINC19363644
                    3D
 Structure written by MMmdl.
 31 31  0  0  1  0            999 V2000
   -1.9309   -0.9105   -1.1764 C   0  0  0  0  0  0
   -0.3941   -0.7878   -1.1304 C   0  0  0  0  0  0
    0.0188    0.1602   -0.0639 N   0  3  0  0  0  0
   -0.6543    1.4749   -0.2393 C   0  0  0  0  0  0
   -2.1837    1.2881   -0.3122 C   0  0  0  0  0  0
   -2.6077    0.3711   -1.3732 N   0  0  0  0  0  0
   -2.4449    0.8957   -2.7328 C   0  0  0  0  0  0
   -3.3452    2.0931   -3.0761 C   0  0  0  0  0  0
   -3.1749    2.4303   -4.4352 O   0  0  0  0  0  0
    1.4946    0.2593    0.0659 C   0  0  0  0  0  0
    1.9345    0.7465    1.4569 C   0  0  0  0  0  0
    1.5941   -0.2125    2.4360 O   0  0  0  0  0  0
   -2.2774   -1.3542   -0.2419 H   0  0  0  0  0  0
   -2.2234   -1.6091   -1.9612 H   0  0  0  0  0  0
    0.0361   -1.7698   -0.9306 H   0  0  0  0  0  0
    0.0016   -0.4618   -2.0932 H   0  0  0  0  0  0
   -0.4198    2.1305    0.5987 H   0  0  0  0  0  0
   -0.2803    1.9704   -1.1360 H   0  0  0  0  0  0
   -2.5320    0.9000    0.6461 H   0  0  0  0  0  0
   -2.6728    2.2550   -0.4243 H   0  0  0  0  0  0
   -1.4049    1.1618   -2.9200 H   0  0  0  0  0  0
   -2.6770    0.0981   -3.4401 H   0  0  0  0  0  0
   -4.3933    1.8507   -2.8986 H   0  0  0  0  0  0
   -3.1008    2.9665   -2.4720 H   0  0  0  0  0  0
   -3.7674    3.1356   -4.6476 H   0  0  0  0  0  0
    1.9482   -0.7163   -0.1159 H   0  0  0  0  0  0
    1.8826    0.9227   -0.7084 H   0  0  0  0  0  0
    3.0167    0.8789    1.4739 H   0  0  0  0  0  0
    1.4955    1.7098    1.7145 H   0  0  0  0  0  0
    1.9342    0.0738    3.2708 H   0  0  0  0  0  0
   -0.3180   -0.2316    0.8042 H   0  0  0  0  0  0
  1  6  1  0  0  0
  1  2  1  0  0  0
  1 13  1  0  0  0
  1 14  1  0  0  0
  2  3  1  0  0  0
  2 15  1  0  0  0
  2 16  1  0  0  0
  3  4  1  0  0  0
  3 10  1  0  0  0
  3 31  1  0  0  0
  4  5  1  0  0  0
  4 17  1  0  0  0
  4 18  1  0  0  0
  5  6  1  0  0  0
  5 19  1  0  0  0
  5 20  1  0  0  0
  6  7  1  0  0  0
  7  8  1  0  0  0
  7 21  1  0  0  0
  7 22  1  0  0  0
  8  9  1  0  0  0
  8 23  1  0  0  0
  8 24  1  0  0  0
  9 25  1  0  0  0
 10 11  1  0  0  0
 10 26  1  0  0  0
 10 27  1  0  0  0
 11 12  1  0  0  0
 11 28  1  0  0  0
 11 29  1  0  0  0
 12 30  1  0  0  0
M  CHG  1   3   1
M  END
> <s_m_entry_id>
88

> <s_m_entry_name>
biosynth_p1.0.sdf.81

> <s_m_Source_Path>
/Users/Sebastito/Downloads

> <s_m_Source_File>
biosynth_p1.0.sdf.gz

> <i_m_Source_File_Index>
81

> <chiral flag>
0

> <version>
0

> <i_m_ct_enhanced_stereo_status>
0

> <s_m_source_file>
ligprep_vs.maegz

> <i_m_source_file_index>
81

> <i_lp_mmshare_version>
37011

> <r_epik_Ionization_Penalty>
0.104553

> <r_epik_Ionization_Penalty_Charging>
0.0797982

> <r_epik_Ionization_Penalty_Neutral>
0.0247549

> <r_epik_State_Penalty>
0.0885182

> <r_epik_Charging_Adjusted_Penalty>
0.168316

> <i_epik_Tot_Q>
1

> <i_epik_Tot_abs_Q>
1

> <i_f3d_flags>
0

> <s_lp_Force_Field>
OPLS_2005

> <r_lp_Energy>
25.9047

> <b_lp_Chiralities_Consistent>
1

> <s_lp_Variant>
ZINC19363644-1

$$$$
ZINC19363644
                    3D
 Structure written by MMmdl.
 30 30  0  0  1  0            999 V2000
   -2.0350    1.4289    0.0660 C   0  0  0  0  0  0
   -0.4964    1.3936    0.0062 C   0  0  0  0  0  0
    0.0083    0.0203    0.0156 N   0  0  0  0  0  0
   -0.4964   -0.6527    1.2130 C   0  0  0  0  0  0
   -2.0351   -0.6187    1.2707 C   0  0  0  0  0  0
   -2.5398    0.7548    1.2626 N   0  0  0  0  0  0
   -3.9991    0.8101    1.3479 C   0  0  0  0  0  0
   -4.5023    1.5201    2.6117 C   0  0  0  0  0  0
   -4.4186    2.9203    2.4492 O   0  0  0  0  0  0
    1.4677   -0.0275   -0.0740 C   0  0  0  0  0  0
    1.9708   -0.7886   -1.3078 C   0  0  0  0  0  0
    1.8871    0.0323   -2.4536 O   0  0  0  0  0  0
   -2.4471    0.9613   -0.8299 H   0  0  0  0  0  0
   -2.3711    2.4665    0.0602 H   0  0  0  0  0  0
   -0.1604    1.9018   -0.8985 H   0  0  0  0  0  0
   -0.0843    1.9505    0.8495 H   0  0  0  0  0  0
   -0.1591   -1.6898    1.2215 H   0  0  0  0  0  0
   -0.0866   -0.1819    2.1082 H   0  0  0  0  0  0
   -2.4449   -1.1734    0.4250 H   0  0  0  0  0  0
   -2.3724   -1.1289    2.1738 H   0  0  0  0  0  0
   -4.4290    1.2830    0.4632 H   0  0  0  0  0  0
   -4.4043   -0.2030    1.3497 H   0  0  0  0  0  0
   -5.5471    1.2651    2.7899 H   0  0  0  0  0  0
   -3.9393    1.2086    3.4922 H   0  0  0  0  0  0
   -4.7318    3.3339    3.2388 H   0  0  0  0  0  0
    1.8976    0.9755   -0.0588 H   0  0  0  0  0  0
    1.8728   -0.5202    0.8112 H   0  0  0  0  0  0
    3.0157   -1.0682   -1.1711 H   0  0  0  0  0  0
    1.4078   -1.7098   -1.4621 H   0  0  0  0  0  0
    2.2003   -0.4578   -3.1982 H   0  0  0  0  0  0
  1  6  1  0  0  0
  1  2  1  0  0  0
  1 13  1  0  0  0
  1 14  1  0  0  0
  2  3  1  0  0  0
  2 15  1  0  0  0
  2 16  1  0  0  0
  3  4  1  0  0  0
  3 10  1  0  0  0
  4  5  1  0  0  0
  4 17  1  0  0  0
  4 18  1  0  0  0
  5  6  1  0  0  0
  5 19  1  0  0  0
  5 20  1  0  0  0
  6  7  1  0  0  0
  7  8  1  0  0  0
  7 21  1  0  0  0
  7 22  1  0  0  0
  8  9  1  0  0  0
  8 23  1  0  0  0
  8 24  1  0  0  0
  9 25  1  0  0  0
 10 11  1  0  0  0
 10 26  1  0  0  0
 10 27  1  0  0  0
 11 12  1  0  0  0
 11 28  1  0  0  0
 11 29  1  0  0  0
 12 30  1  0  0  0
M  END
> <s_m_entry_id>
88

> <s_m_entry_name>
biosynth_p1.0.sdf.81

> <s_m_Source_Path>
/Users/Sebastito/Downloads

> <s_m_Source_File>
biosynth_p1.0.sdf.gz

> <i_m_Source_File_Index>
81

> <chiral flag>
0

> <version>
0

> <i_m_ct_enhanced_stereo_status>
0

> <s_m_source_file>
ligprep_vs.maegz

> <i_m_source_file_index>
81

> <i_lp_mmshare_version>
37011

> <r_epik_Ionization_Penalty>
1.22728

> <r_epik_Ionization_Penalty_Charging>
0

> <r_epik_Ionization_Penalty_Neutral>
1.22728

> <r_epik_State_Penalty>
1.31298

> <r_epik_Charging_Adjusted_Penalty>
1.31298

> <i_epik_Tot_Q>
0

> <i_epik_Tot_abs_Q>
0

> <i_f3d_flags>
0

> <s_lp_Force_Field>
OPLS_2005

> <r_lp_Energy>
51.1586

> <b_lp_Chiralities_Consistent>
1

> <s_lp_Variant>
ZINC19363644-2

$$$$
ZINC19363644
                    3D
 Structure written by MMmdl.
 32 32  0  0  1  0            999 V2000
   -2.0360   -0.8754   -0.9827 C   0  0  0  0  0  0
   -0.4978   -0.8231   -1.0130 C   0  0  0  0  0  0
    0.0280    0.1464   -0.0210 N   0  3  2  0  0  0
   -0.5570    1.4944   -0.2357 C   0  0  0  0  0  0
   -2.0951    1.4441   -0.2053 C   0  0  0  0  0  0
   -2.6248    0.4719   -1.1934 N   0  3  2  0  0  0
   -4.1100    0.4707   -1.2388 C   0  0  0  0  0  0
   -4.6668   -0.0982   -2.5552 C   0  0  0  0  0  0
   -4.2855    0.7245   -3.6373 O   0  0  0  0  0  0
    1.5125    0.1457    0.0378 C   0  0  0  0  0  0
    2.0521    0.6771    1.3768 C   0  0  0  0  0  0
    1.6713   -0.1862    2.4271 O   0  0  0  0  0  0
   -2.3751   -1.2756   -0.0256 H   0  0  0  0  0  0
   -2.3798   -1.5651   -1.7526 H   0  0  0  0  0  0
   -0.1014   -1.8172   -0.8021 H   0  0  0  0  0  0
   -0.1506   -0.5481   -2.0105 H   0  0  0  0  0  0
   -0.2105    2.1852    0.5323 H   0  0  0  0  0  0
   -0.2168    1.8911   -1.1937 H   0  0  0  0  0  0
   -2.4417    1.1730    0.7934 H   0  0  0  0  0  0
   -2.4906    2.4380   -0.4190 H   0  0  0  0  0  0
   -4.4999   -0.0914   -0.3889 H   0  0  0  0  0  0
   -4.4817    1.4902   -1.1241 H   0  0  0  0  0  0
   -4.3403   -1.1218   -2.7355 H   0  0  0  0  0  0
   -5.7561   -0.1207   -2.5128 H   0  0  0  0  0  0
   -4.7153    0.4119   -4.4199 H   0  0  0  0  0  0
    1.8873   -0.8697   -0.1020 H   0  0  0  0  0  0
    1.9108    0.7322   -0.7913 H   0  0  0  0  0  0
    3.1413    0.7144    1.3450 H   0  0  0  0  0  0
    1.7096    1.6895    1.5884 H   0  0  0  0  0  0
    2.0855    0.1082    3.2252 H   0  0  0  0  0  0
   -0.2857   -0.1754    0.8843 H   0  0  0  0  0  0
   -2.3186    0.7931   -2.1014 H   0  0  0  0  0  0
  1  6  1  0  0  0
  1  2  1  0  0  0
  1 13  1  0  0  0
  1 14  1  0  0  0
  2  3  1  0  0  0
  2 15  1  0  0  0
  2 16  1  0  0  0
  3  4  1  0  0  0
  3 10  1  0  0  0
  3 31  1  0  0  0
  4  5  1  0  0  0
  4 17  1  0  0  0
  4 18  1  0  0  0
  5  6  1  0  0  0
  5 19  1  0  0  0
  5 20  1  0  0  0
  6  7  1  0  0  0
  6 32  1  0  0  0
  7  8  1  0  0  0
  7 21  1  0  0  0
  7 22  1  0  0  0
  8  9  1  0  0  0
  8 23  1  0  0  0
  8 24  1  0  0  0
  9 25  1  0  0  0
 10 11  1  0  0  0
 10 26  1  0  0  0
 10 27  1  0  0  0
 11 12  1  0  0  0
 11 28  1  0  0  0
 11 29  1  0  0  0
 12 30  1  0  0  0
M  CHG  2   3   1   6   1
M  END
> <s_m_entry_id>
88

> <s_m_entry_name>
biosynth_p1.0.sdf.81

> <s_m_Source_Path>
/Users/Sebastito/Downloads

> <s_m_Source_File>
biosynth_p1.0.sdf.gz

> <i_m_Source_File_Index>
81

> <chiral flag>
0

> <version>
0

> <i_m_ct_enhanced_stereo_status>
0

> <s_m_source_file>
ligprep_vs.maegz

> <i_m_source_file_index>
81

> <i_lp_mmshare_version>
37011

> <r_epik_Ionization_Penalty>
1.89368

> <r_epik_Ionization_Penalty_Charging>
1.89367

> <r_epik_Ionization_Penalty_Neutral>
1.54863e-05

> <r_epik_State_Penalty>
2.0828

> <r_epik_Charging_Adjusted_Penalty>
3.97646

> <i_epik_Tot_Q>
2

> <i_epik_Tot_abs_Q>
2

> <i_f3d_flags>
0

> <s_lp_Force_Field>
OPLS_2005

> <r_lp_Energy>
21.7424

> <b_lp_Chiralities_Consistent>
1

> <s_lp_Variant>
ZINC19363644-3

$$$$
ZINC19363644
                    3D
 Structure written by MMmdl.
 32 32  0  0  1  0            999 V2000
   -2.0210   -0.5511   -1.1040 C   0  0  0  0  0  0
   -0.4834   -0.6461   -1.0960 C   0  0  0  0  0  0
    0.0967    0.1629    0.0048 N   0  3  2  0  0  0
   -0.3500    1.5781   -0.0727 C   0  0  0  0  0  0
   -1.8891    1.6807   -0.1044 C   0  0  0  0  0  0
   -2.4873    0.8558   -1.1871 N   0  3  1  0  0  0
   -2.3771    1.4395   -2.5514 C   0  0  0  0  0  0
   -3.3628    2.5988   -2.7781 C   0  0  0  0  0  0
   -4.6896    2.1196   -2.7266 O   0  0  0  0  0  0
    1.5713    0.0101    0.1021 C   0  0  0  0  0  0
    2.1105    0.3468    1.5031 C   0  0  0  0  0  0
    1.6038   -0.5718    2.4481 O   0  0  0  0  0  0
   -2.4140   -0.9870   -0.1843 H   0  0  0  0  0  0
   -2.4399   -1.1413   -1.9200 H   0  0  0  0  0  0
   -0.1915   -1.6902   -0.9757 H   0  0  0  0  0  0
   -0.0749   -0.3130   -2.0516 H   0  0  0  0  0  0
    0.0197    2.1363    0.7866 H   0  0  0  0  0  0
    0.0821    2.0498   -0.9560 H   0  0  0  0  0  0
   -2.2893    1.3270    0.8468 H   0  0  0  0  0  0
   -2.1984    2.7217   -0.1882 H   0  0  0  0  0  0
   -1.3566    1.7731   -2.7390 H   0  0  0  0  0  0
   -2.5824    0.6705   -3.2977 H   0  0  0  0  0  0
   -3.2326    3.4013   -2.0530 H   0  0  0  0  0  0
   -3.1968    3.0358   -3.7632 H   0  0  0  0  0  0
   -5.2766    2.8284   -2.9456 H   0  0  0  0  0  0
    1.8521   -1.0179   -0.1327 H   0  0  0  0  0  0
    2.0537    0.6354   -0.6505 H   0  0  0  0  0  0
    3.1984    0.2734    1.5059 H   0  0  0  0  0  0
    1.8641    1.3632    1.8081 H   0  0  0  0  0  0
    2.0073   -0.3970    3.2858 H   0  0  0  0  0  0
   -0.2775   -0.2199    0.8620 H   0  0  0  0  0  0
   -3.4816    0.8235   -1.0071 H   0  0  0  0  0  0
  1  6  1  0  0  0
  1  2  1  0  0  0
  1 13  1  0  0  0
  1 14  1  0  0  0
  2  3  1  0  0  0
  2 15  1  0  0  0
  2 16  1  0  0  0
  3  4  1  0  0  0
  3 10  1  0  0  0
  3 31  1  0  0  0
  4  5  1  0  0  0
  4 17  1  0  0  0
  4 18  1  0  0  0
  5  6  1  0  0  0
  5 19  1  0  0  0
  5 20  1  0  0  0
  6  7  1  0  0  0
  6 32  1  0  0  0
  7  8  1  0  0  0
  7 21  1  0  0  0
  7 22  1  0  0  0
  8  9  1  0  0  0
  8 23  1  0  0  0
  8 24  1  0  0  0
  9 25  1  0  0  0
 10 11  1  0  0  0
 10 26  1  0  0  0
 10 27  1  0  0  0
 11 12  1  0  0  0
 11 28  1  0  0  0
 11 29  1  0  0  0
 12 30  1  0  0  0
M  CHG  2   3   1   6   1
M  END
> <s_m_entry_id>
88

> <s_m_entry_name>
biosynth_p1.0.sdf.81

> <s_m_Source_Path>
/Users/Sebastito/Downloads

> <s_m_Source_File>
biosynth_p1.0.sdf.gz

> <i_m_Source_File_Index>
81

> <chiral flag>
0

> <version>
0

> <i_m_ct_enhanced_stereo_status>
0

> <s_m_source_file>
ligprep_vs.maegz

> <i_m_source_file_index>
81

> <i_lp_mmshare_version>
37011

> <r_epik_Ionization_Penalty>
1.89368

> <r_epik_Ionization_Penalty_Charging>
1.89367

> <r_epik_Ionization_Penalty_Neutral>
1.54863e-05

> <r_epik_State_Penalty>
2.0828

> <r_epik_Charging_Adjusted_Penalty>
3.97646

> <i_epik_Tot_Q>
2

> <i_epik_Tot_abs_Q>
2

> <i_f3d_flags>
0

> <s_lp_Force_Field>
OPLS_2005

> <r_lp_Energy>
24.1836

> <b_lp_Chiralities_Consistent>
1

> <s_lp_Variant>
ZINC19363644-4

$$$$
ZINC38611959
                    3D
 Structure written by MMmdl.
 51 50  0  0  1  0            999 V2000
   -0.3191    1.5533   -5.1093 C   0  0  0  0  0  0
    0.0872    2.1557   -3.7598 C   0  0  0  0  0  0
   -0.4840    1.3734   -2.5687 C   0  0  0  0  0  0
   -0.0634    1.9775   -1.2157 C   0  0  0  0  0  0
   -0.6159    1.2518    0.0341 C   0  0  1  0  0  0
   -0.2098    1.7809    0.8977 H   0  0  0  0  0  0
   -2.1530    1.3611    0.1255 C   0  0  0  0  0  0
   -2.7212    1.0078    1.5074 C   0  0  0  0  0  0
   -0.1348   -0.2101    0.1287 C   0  0  0  0  0  0
    1.2820   -0.2560    0.2035 O   0  0  0  0  0  0
    1.9205   -1.4279    0.0737 C   0  0  0  0  0  0
    1.3743   -2.5136   -0.1273 O   0  0  0  0  0  0
    3.2799   -1.2002    0.2036 N   0  0  0  0  0  0
    4.2860   -2.2509    0.1066 C   0  0  0  0  0  0
    4.6233   -2.6032   -1.3531 C   0  0  0  0  0  0
    5.2145   -1.4277   -2.1492 C   0  0  0  0  0  0
    5.5756   -1.8161   -3.5897 C   0  0  0  0  0  0
    6.1913   -0.6471   -4.3770 C   0  0  0  0  0  0
    6.5738   -1.0129   -5.8200 C   0  0  0  0  0  0
    5.3984   -1.2504   -6.6158 N   0  0  0  0  0  0
    5.0137   -1.2828   -7.7714 C   0  0  0  0  0  0
    4.7291   -1.2093   -8.9110 O   0  0  0  0  0  0
    0.1003    2.1302   -5.9339 H   0  0  0  0  0  0
   -1.4030    1.5450   -5.2273 H   0  0  0  0  0  0
    0.0374    0.5274   -5.2058 H   0  0  0  0  0  0
    1.1753    2.1825   -3.6922 H   0  0  0  0  0  0
   -0.2507    3.1915   -3.7129 H   0  0  0  0  0  0
   -1.5711    1.3538   -2.6459 H   0  0  0  0  0  0
   -0.1490    0.3382   -2.6338 H   0  0  0  0  0  0
    1.0257    1.9995   -1.1638 H   0  0  0  0  0  0
   -0.3744    3.0226   -1.1823 H   0  0  0  0  0  0
   -2.4547    2.3824   -0.1104 H   0  0  0  0  0  0
   -2.6201    0.7261   -0.6278 H   0  0  0  0  0  0
   -3.8007    1.1590    1.5288 H   0  0  0  0  0  0
   -2.2847    1.6351    2.2850 H   0  0  0  0  0  0
   -2.5337   -0.0333    1.7689 H   0  0  0  0  0  0
   -0.5369   -0.6869    1.0225 H   0  0  0  0  0  0
   -0.4946   -0.7843   -0.7259 H   0  0  0  0  0  0
    3.5710   -0.2475    0.3686 H   0  0  0  0  0  0
    5.1840   -1.9137    0.6245 H   0  0  0  0  0  0
    3.9429   -3.1411    0.6363 H   0  0  0  0  0  0
    5.3345   -3.4297   -1.3564 H   0  0  0  0  0  0
    3.7298   -2.9740   -1.8567 H   0  0  0  0  0  0
    4.5037   -0.6011   -2.1707 H   0  0  0  0  0  0
    6.1043   -1.0571   -1.6391 H   0  0  0  0  0  0
    6.2767   -2.6515   -3.5765 H   0  0  0  0  0  0
    4.6796   -2.1735   -4.0985 H   0  0  0  0  0  0
    5.5046    0.2008   -4.3824 H   0  0  0  0  0  0
    7.0869   -0.3064   -3.8563 H   0  0  0  0  0  0
    7.1513   -0.1989   -6.2601 H   0  0  0  0  0  0
    7.2172   -1.8936   -5.8312 H   0  0  0  0  0  0
  1  2  1  0  0  0
  1 23  1  0  0  0
  1 24  1  0  0  0
  1 25  1  0  0  0
  2  3  1  0  0  0
  2 26  1  0  0  0
  2 27  1  0  0  0
  3  4  1  0  0  0
  3 28  1  0  0  0
  3 29  1  0  0  0
  4  5  1  0  0  0
  4 30  1  0  0  0
  4 31  1  0  0  0
  5  6  1  0  0  0
  5  7  1  0  0  0
  5  9  1  0  0  0
  7  8  1  0  0  0
  7 32  1  0  0  0
  7 33  1  0  0  0
  8 34  1  0  0  0
  8 35  1  0  0  0
  8 36  1  0  0  0
  9 10  1  0  0  0
  9 37  1  0  0  0
  9 38  1  0  0  0
 10 11  1  0  0  0
 11 12  2  0  0  0
 11 13  1  0  0  0
 13 14  1  0  0  0
 13 39  1  0  0  0
 14 15  1  0  0  0
 14 40  1  0  0  0
 14 41  1  0  0  0
 15 16  1  0  0  0
 15 42  1  0  0  0
 15 43  1  0  0  0
 16 17  1  0  0  0
 16 44  1  0  0  0
 16 45  1  0  0  0
 17 18  1  0  0  0
 17 46  1  0  0  0
 17 47  1  0  0  0
 18 19  1  0  0  0
 18 48  1  0  0  0
 18 49  1  0  0  0
 19 20  1  0  0  0
 19 50  1  0  0  0
 19 51  1  0  0  0
 20 21  2  0  0  0
 21 22  2  0  0  0
M  END
> <s_m_entry_id>
89

> <s_m_entry_name>
biosynth_p1.0.sdf.82

> <s_m_Source_Path>
/Users/Sebastito/Downloads

> <s_m_Source_File>
biosynth_p1.0.sdf.gz

> <i_m_Source_File_Index>
82

> <chiral flag>
1

> <version>
0

> <i_m_ct_enhanced_stereo_status>
0

> <s_m_source_file>
ligprep_vs.maegz

> <i_m_source_file_index>
82

> <i_lp_mmshare_version>
37011

> <r_epik_Ionization_Penalty>
0.000450965

> <r_epik_Ionization_Penalty_Charging>
0

> <r_epik_Ionization_Penalty_Neutral>
0.000450965

> <r_epik_State_Penalty>
0.000278625

> <r_epik_Charging_Adjusted_Penalty>
0.000278625

> <i_epik_Tot_Q>
0

> <i_epik_Tot_abs_Q>
0

> <s_epik_Chemistry_Notes>
This compound has an ester and may undergo hydrolysis at high or low pH. This compound has an imine and may undergo hydrolysis.

> <i_f3d_flags>
0

> <s_lp_Force_Field>
OPLS_2005

> <r_lp_Energy>
4.93051

> <b_lp_Chiralities_Consistent>
1

> <s_lp_Variant>
ZINC38611959-1

$$$$
ZINC38611960
                    3D
 Structure written by MMmdl.
 51 50  0  0  1  0            999 V2000
   -5.0578    0.4159    2.4053 C   0  0  0  0  0  0
   -4.3661    1.0310    1.1839 C   0  0  0  0  0  0
   -2.8450    0.8212    1.1993 C   0  0  0  0  0  0
   -2.1546    1.4424   -0.0279 C   0  0  0  0  0  0
   -0.6114    1.3507   -0.0034 C   0  0  2  0  0  0
   -0.2675    1.7144    0.9660 H   0  0  0  0  0  0
    0.0281    2.2346   -1.0998 C   0  0  0  0  0  0
   -0.1014    3.7455   -0.8555 C   0  0  0  0  0  0
   -0.1412   -0.1104   -0.1533 C   0  0  0  0  0  0
    1.2486   -0.2115    0.1191 O   0  0  0  0  0  0
    1.8886   -1.3700   -0.0972 C   0  0  0  0  0  0
    1.3648   -2.3984   -0.5286 O   0  0  0  0  0  0
    3.2205   -1.2031    0.2432 N   0  0  0  0  0  0
    4.2191   -2.2575    0.1266 C   0  0  0  0  0  0
    4.7442   -2.3767   -1.3152 C   0  0  0  0  0  0
    5.8604   -3.4207   -1.4830 C   0  0  0  0  0  0
    5.3771   -4.8730   -1.3375 C   0  0  0  0  0  0
    6.5022   -5.8952   -1.5733 C   0  0  0  0  0  0
    6.0362   -7.3573   -1.4719 C   0  0  0  0  0  0
    5.6836   -7.6947   -0.1174 N   0  0  0  0  0  0
    4.7369   -8.0337    0.5708 C   0  0  0  0  0  0
    3.7613   -8.2428    1.1947 O   0  0  0  0  0  0
   -6.1347    0.5815    2.3666 H   0  0  0  0  0  0
   -4.6870    0.8563    3.3312 H   0  0  0  0  0  0
   -4.8884   -0.6600    2.4538 H   0  0  0  0  0  0
   -4.7860    0.5957    0.2765 H   0  0  0  0  0  0
   -4.5892    2.0978    1.1460 H   0  0  0  0  0  0
   -2.4308    1.2586    2.1086 H   0  0  0  0  0  0
   -2.6387   -0.2476    1.2483 H   0  0  0  0  0  0
   -2.5353    0.9792   -0.9391 H   0  0  0  0  0  0
   -2.4570    2.4874   -0.0758 H   0  0  0  0  0  0
    1.0928    2.0109   -1.1710 H   0  0  0  0  0  0
   -0.3936    1.9820   -2.0734 H   0  0  0  0  0  0
    0.4556    4.3031   -1.6085 H   0  0  0  0  0  0
    0.2967    4.0226    0.1210 H   0  0  0  0  0  0
   -1.1360    4.0827   -0.9065 H   0  0  0  0  0  0
   -0.6671   -0.7623    0.5434 H   0  0  0  0  0  0
   -0.3580   -0.4706   -1.1602 H   0  0  0  0  0  0
    3.4953   -0.2939    0.5860 H   0  0  0  0  0  0
    5.0405   -2.0223    0.8038 H   0  0  0  0  0  0
    3.7940   -3.2017    0.4687 H   0  0  0  0  0  0
    3.9243   -2.6087   -1.9963 H   0  0  0  0  0  0
    5.1299   -1.4057   -1.6281 H   0  0  0  0  0  0
    6.3021   -3.2969   -2.4724 H   0  0  0  0  0  0
    6.6599   -3.2211   -0.7686 H   0  0  0  0  0  0
    4.9583   -5.0208   -0.3425 H   0  0  0  0  0  0
    4.5668   -5.0580   -2.0436 H   0  0  0  0  0  0
    6.9210   -5.7339   -2.5673 H   0  0  0  0  0  0
    7.3179   -5.7190   -0.8703 H   0  0  0  0  0  0
    5.1914   -7.5336   -2.1395 H   0  0  0  0  0  0
    6.8370   -8.0179   -1.8050 H   0  0  0  0  0  0
  1  2  1  0  0  0
  1 23  1  0  0  0
  1 24  1  0  0  0
  1 25  1  0  0  0
  2  3  1  0  0  0
  2 26  1  0  0  0
  2 27  1  0  0  0
  3  4  1  0  0  0
  3 28  1  0  0  0
  3 29  1  0  0  0
  4  5  1  0  0  0
  4 30  1  0  0  0
  4 31  1  0  0  0
  5  6  1  0  0  0
  5  7  1  0  0  0
  5  9  1  0  0  0
  7  8  1  0  0  0
  7 32  1  0  0  0
  7 33  1  0  0  0
  8 34  1  0  0  0
  8 35  1  0  0  0
  8 36  1  0  0  0
  9 10  1  0  0  0
  9 37  1  0  0  0
  9 38  1  0  0  0
 10 11  1  0  0  0
 11 12  2  0  0  0
 11 13  1  0  0  0
 13 14  1  0  0  0
 13 39  1  0  0  0
 14 15  1  0  0  0
 14 40  1  0  0  0
 14 41  1  0  0  0
 15 16  1  0  0  0
 15 42  1  0  0  0
 15 43  1  0  0  0
 16 17  1  0  0  0
 16 44  1  0  0  0
 16 45  1  0  0  0
 17 18  1  0  0  0
 17 46  1  0  0  0
 17 47  1  0  0  0
 18 19  1  0  0  0
 18 48  1  0  0  0
 18 49  1  0  0  0
 19 20  1  0  0  0
 19 50  1  0  0  0
 19 51  1  0  0  0
 20 21  2  0  0  0
 21 22  2  0  0  0
M  END
> <s_m_entry_id>
90

> <s_m_entry_name>
biosynth_p1.0.sdf.83

> <s_m_Source_Path>
/Users/Sebastito/Downloads

> <s_m_Source_File>
biosynth_p1.0.sdf.gz

> <i_m_Source_File_Index>
83

> <chiral flag>
1

> <version>
0

> <i_m_ct_enhanced_stereo_status>
0

> <s_m_source_file>
ligprep_vs.maegz

> <i_m_source_file_index>
83

> <i_lp_mmshare_version>
37011

> <r_epik_Ionization_Penalty>
0.000450965

> <r_epik_Ionization_Penalty_Charging>
0

> <r_epik_Ionization_Penalty_Neutral>
0.000450965

> <r_epik_State_Penalty>
0.000278625

> <r_epik_Charging_Adjusted_Penalty>
0.000278625

> <i_epik_Tot_Q>
0

> <i_epik_Tot_abs_Q>
0

> <s_epik_Chemistry_Notes>
This compound has an ester and may undergo hydrolysis at high or low pH. This compound has an imine and may undergo hydrolysis.

> <i_f3d_flags>
0

> <s_lp_Force_Field>
OPLS_2005

> <r_lp_Energy>
4.99035

> <b_lp_Chiralities_Consistent>
1

> <s_lp_Variant>
ZINC38611960-1

$$$$
ZINC03883461
                    3D
 Structure written by MMmdl.
 17 17  0  0  1  0            999 V2000
   -0.3693    2.5084   -0.1401 C   0  0  0  0  0  0
   -0.8201    1.1188   -0.0456 N   0  0  0  0  0  0
   -2.1193    0.6834    0.0120 C   0  0  0  0  0  0
   -2.0720   -0.6833    0.0981 C   0  0  0  0  0  0
    0.0180    0.0692   -0.0007 C   0  0  0  0  0  0
    1.5152    0.0822   -0.0419 C   0  0  0  0  0  0
    1.8181    0.2028    1.3317 O   0  0  0  0  0  0
   -1.2278    3.1766   -0.0661 H   0  0  0  0  0  0
    0.1273    2.6619   -1.0985 H   0  0  0  0  0  0
    0.3233    2.7209    0.6749 H   0  0  0  0  0  0
   -2.9607    1.3610   -0.0103 H   0  0  0  0  0  0
   -2.8609   -1.4185    0.1645 H   0  0  0  0  0  0
    1.8721   -0.8570   -0.4659 H   0  0  0  0  0  0
    1.8659    0.9312   -0.6288 H   0  0  0  0  0  0
    2.7578    0.2303    1.4319 H   0  0  0  0  0  0
   -0.7470   -1.0257    0.0878 N   0  3  0  0  0  0
   -0.3909   -1.9715    0.1438 H   0  0  0  0  0  0
  1  2  1  0  0  0
  1  8  1  0  0  0
  1  9  1  0  0  0
  1 10  1  0  0  0
  2  5  1  0  0  0
  2  3  1  0  0  0
  3  4  2  0  0  0
  3 11  1  0  0  0
  4 12  1  0  0  0
  4 16  1  0  0  0
  5  6  1  0  0  0
  5 16  2  0  0  0
  6  7  1  0  0  0
  6 13  1  0  0  0
  6 14  1  0  0  0
  7 15  1  0  0  0
 16 17  1  0  0  0
M  CHG  1  16   1
M  END
> <s_m_entry_id>
91

> <s_m_entry_name>
biosynth_p1.0.sdf.84

> <s_m_Source_Path>
/Users/Sebastito/Downloads

> <s_m_Source_File>
biosynth_p1.0.sdf.gz

> <i_m_Source_File_Index>
84

> <chiral flag>
0

> <version>
0

> <i_m_ct_enhanced_stereo_status>
0

> <s_m_source_file>
ligprep_vs.maegz

> <i_m_source_file_index>
84

> <i_lp_mmshare_version>
37011

> <r_lp_tautomer_probability>
1

> <r_epik_Ionization_Penalty>
0.310001

> <r_epik_Ionization_Penalty_Charging>
0

> <r_epik_Ionization_Penalty_Neutral>
0.310001

> <r_epik_State_Penalty>
0.303079

> <r_epik_Charging_Adjusted_Penalty>
0.303079

> <i_epik_Tot_Q>
1

> <i_epik_Tot_abs_Q>
1

> <i_f3d_flags>
0

> <s_lp_Force_Field>
OPLS_2005

> <r_lp_Energy>
4.28796

> <b_lp_Chiralities_Consistent>
1

> <s_lp_Variant>
ZINC03883461-1

$$$$
ZINC03883461
                    3D
 Structure written by MMmdl.
 16 16  0  0  1  0            999 V2000
   -0.1269    2.5201   -0.0000 C   0  0  0  0  0  0
   -0.6739    1.1774   -0.0000 N   0  0  0  0  0  0
   -2.0218    0.8438    0.0000 C   0  0  0  0  0  0
   -2.0866   -0.5283    0.0000 C   0  0  0  0  0  0
    0.0027    0.0129    0.0000 C   0  0  0  0  0  0
    1.5021   -0.0413    0.0000 C   0  0  0  0  0  0
    2.0257   -1.3541   -0.0000 O   0  0  0  0  0  0
   -0.9330    3.2544   -0.0000 H   0  0  0  0  0  0
    0.4856    2.6702   -0.8892 H   0  0  0  0  0  0
    0.4856    2.6702    0.8892 H   0  0  0  0  0  0
   -2.8025    1.5900    0.0000 H   0  0  0  0  0  0
   -2.9523   -1.1739    0.0000 H   0  0  0  0  0  0
    1.8773    0.4836   -0.8788 H   0  0  0  0  0  0
    1.8773    0.4836    0.8788 H   0  0  0  0  0  0
    2.9691   -1.3023   -0.0000 H   0  0  0  0  0  0
   -0.7979   -1.0507    0.0000 N   0  0  0  0  0  0
  1  2  1  0  0  0
  1  8  1  0  0  0
  1  9  1  0  0  0
  1 10  1  0  0  0
  2  5  1  0  0  0
  2  3  1  0  0  0
  3  4  2  0  0  0
  3 11  1  0  0  0
  4 12  1  0  0  0
  4 16  1  0  0  0
  5  6  1  0  0  0
  5 16  2  0  0  0
  6  7  1  0  0  0
  6 13  1  0  0  0
  6 14  1  0  0  0
  7 15  1  0  0  0
M  END
> <s_m_entry_id>
91

> <s_m_entry_name>
biosynth_p1.0.sdf.84

> <s_m_Source_Path>
/Users/Sebastito/Downloads

> <s_m_Source_File>
biosynth_p1.0.sdf.gz

> <i_m_Source_File_Index>
84

> <chiral flag>
0

> <version>
0

> <i_m_ct_enhanced_stereo_status>
0

> <s_m_source_file>
ligprep_vs.maegz

> <i_m_source_file_index>
84

> <i_lp_mmshare_version>
37011

> <r_lp_tautomer_probability>
1

> <r_epik_Ionization_Penalty>
0.533362

> <r_epik_Ionization_Penalty_Charging>
0.533287

> <r_epik_Ionization_Penalty_Neutral>
7.45855e-05

> <r_epik_State_Penalty>
0.542256

> <r_epik_Charging_Adjusted_Penalty>
1.07554

> <i_epik_Tot_Q>
0

> <i_epik_Tot_abs_Q>
0

> <i_f3d_flags>
0

> <s_lp_Force_Field>
OPLS_2005

> <r_lp_Energy>
3.16355

> <b_lp_Chiralities_Consistent>
1

> <s_lp_Variant>
ZINC03883461-2

$$$$
ZINC01600115
                    3D
 Structure written by MMmdl.
 22 23  0  0  1  0            999 V2000
   -0.1429   -0.0871    0.0579 C   0  0  0  0  0  0
    1.2604   -0.2253    0.4071 N   0  0  0  0  0  0
    2.0067    0.5886    1.2318 C   0  0  0  0  0  0
    1.5815    1.6507    1.9469 C   0  0  0  0  0  0
    2.5428    2.4396    2.7507 C   0  0  0  0  0  0
    4.0334    2.0029    2.6971 C   0  0  0  0  0  0
    4.8806    2.6396    3.3221 O   0  0  0  0  0  0
    4.3560    0.8127    1.8787 C   0  0  0  0  0  0
    3.3790    0.1650    1.2123 C   0  0  0  0  0  0
    3.5173   -1.0616    0.3490 C   0  0  1  0  0  0
    3.7160   -1.9217    0.9892 H   0  0  0  0  0  0
    2.1152   -1.1782   -0.2986 C   0  0  0  0  0  0
    4.5455   -0.9354   -0.6113 O   0  0  0  0  0  0
    2.2126    3.4047    3.4385 O   0  0  0  0  0  0
   -0.3131    0.8576   -0.4587 H   0  0  0  0  0  0
   -0.7610   -0.1067    0.9558 H   0  0  0  0  0  0
   -0.4640   -0.8987   -0.5958 H   0  0  0  0  0  0
    0.5458    1.9568    1.9382 H   0  0  0  0  0  0
    5.3804    0.4728    1.8400 H   0  0  0  0  0  0
    1.7208   -2.1915   -0.2170 H   0  0  0  0  0  0
    2.1430   -0.9104   -1.3557 H   0  0  0  0  0  0
    5.3766   -0.9203   -0.1619 H   0  0  0  0  0  0
  1  2  1  0  0  0
  1 15  1  0  0  0
  1 16  1  0  0  0
  1 17  1  0  0  0
  2 12  1  0  0  0
  2  3  1  0  0  0
  3  9  1  0  0  0
  3  4  2  0  0  0
  4  5  1  0  0  0
  4 18  1  0  0  0
  5  6  1  0  0  0
  5 14  2  0  0  0
  6  7  2  0  0  0
  6  8  1  0  0  0
  8  9  2  0  0  0
  8 19  1  0  0  0
  9 10  1  0  0  0
 10 11  1  0  0  0
 10 12  1  0  0  0
 10 13  1  0  0  0
 12 20  1  0  0  0
 12 21  1  0  0  0
 13 22  1  0  0  0
M  END
> <s_m_entry_id>
92

> <s_m_entry_name>
biosynth_p1.0.sdf.85

> <s_m_Source_Path>
/Users/Sebastito/Downloads

> <s_m_Source_File>
biosynth_p1.0.sdf.gz

> <i_m_Source_File_Index>
85

> <chiral flag>
1

> <version>
0

> <i_m_ct_enhanced_stereo_status>
0

> <s_m_source_file>
ligprep_vs.maegz

> <i_m_source_file_index>
85

> <i_lp_mmshare_version>
37011

> <r_epik_Ionization_Penalty>
0.156266

> <r_epik_Ionization_Penalty_Charging>
5.43586e-11

> <r_epik_Ionization_Penalty_Neutral>
0.156266

> <r_epik_State_Penalty>
0.145564

> <r_epik_Charging_Adjusted_Penalty>
0.145564

> <i_epik_Tot_Q>
0

> <i_epik_Tot_abs_Q>
0

> <s_epik_Chemistry_Notes>
This compound has an imine and may undergo hydrolysis.

> <i_f3d_flags>
0

> <s_lp_Force_Field>
OPLS_2005

> <r_lp_Energy>
32.4711

> <b_lp_Chiralities_Consistent>
1

> <s_lp_Variant>
ZINC01600115-1

$$$$
ZINC01600115
                    3D
 Structure written by MMmdl.
 21 22  0  0  1  0            999 V2000
   -0.0777   -0.0684   -0.0180 C   0  0  0  0  0  0
    1.3093   -0.2082    0.3908 N   0  0  0  0  0  0
    2.0482    0.6484    1.1738 C   0  0  0  0  0  0
    1.6189    1.7633    1.8017 C   0  0  0  0  0  0
    2.5590    2.5713    2.6096 C   0  0  0  0  0  0
    4.0268    2.0705    2.6944 C   0  0  0  0  0  0
    4.8501    2.7016    3.3564 O   0  0  0  0  0  0
    4.3584    0.8301    1.9571 C   0  0  0  0  0  0
    3.4085    0.1873    1.2425 C   0  0  0  0  0  0
    3.5693   -1.0920    0.4485 C   0  0  1  0  0  0
    3.7048   -1.8725    1.1982 H   0  0  0  0  0  0
    2.1460   -1.2749   -0.1544 C   0  0  0  0  0  0
    4.4189   -0.9153   -0.5325 O   0  5  0  0  0  0
    2.2270    3.5970    3.2031 O   0  0  0  0  0  0
   -0.2142    0.8569   -0.5782 H   0  0  0  0  0  0
   -0.7298   -0.0448    0.8551 H   0  0  0  0  0  0
   -0.3827   -0.9014   -0.6519 H   0  0  0  0  0  0
    0.5911    2.0876    1.7314 H   0  0  0  0  0  0
    5.3747    0.4647    2.0082 H   0  0  0  0  0  0
    1.7309   -2.2466    0.1150 H   0  0  0  0  0  0
    2.1425   -1.2077   -1.2439 H   0  0  0  0  0  0
  1  2  1  0  0  0
  1 15  1  0  0  0
  1 16  1  0  0  0
  1 17  1  0  0  0
  2 12  1  0  0  0
  2  3  1  0  0  0
  3  9  1  0  0  0
  3  4  2  0  0  0
  4  5  1  0  0  0
  4 18  1  0  0  0
  5  6  1  0  0  0
  5 14  2  0  0  0
  6  7  2  0  0  0
  6  8  1  0  0  0
  8  9  2  0  0  0
  8 19  1  0  0  0
  9 10  1  0  0  0
 10 11  1  0  0  0
 10 12  1  0  0  0
 10 13  1  0  0  0
 12 20  1  0  0  0
 12 21  1  0  0  0
M  CHG  1  13  -1
M  END
> <s_m_entry_id>
92

> <s_m_entry_name>
biosynth_p1.0.sdf.85

> <s_m_Source_Path>
/Users/Sebastito/Downloads

> <s_m_Source_File>
biosynth_p1.0.sdf.gz

> <i_m_Source_File_Index>
85

> <chiral flag>
1

> <version>
0

> <i_m_ct_enhanced_stereo_status>
0

> <s_m_source_file>
ligprep_vs.maegz

> <i_m_source_file_index>
85

> <i_lp_mmshare_version>
37011

> <r_epik_Ionization_Penalty>
0.866062

> <r_epik_Ionization_Penalty_Charging>
0.866062

> <r_epik_Ionization_Penalty_Neutral>
1.16189e-09

> <r_epik_State_Penalty>
0.902972

> <r_epik_Charging_Adjusted_Penalty>
1.76903

> <i_epik_Tot_Q>
-1

> <i_epik_Tot_abs_Q>
1

> <s_epik_Chemistry_Notes>
This compound has an imine and may undergo hydrolysis.

> <i_f3d_flags>
0

> <s_lp_Force_Field>
OPLS_2005

> <r_lp_Energy>
28.6718

> <b_lp_Chiralities_Consistent>
1

> <s_lp_Variant>
ZINC01600115-2

$$$$
ZINC00005823
                    3D
 Structure written by MMmdl.
 44 45  0  0  1  0            999 V2000
    0.1853    7.1717    0.7992 C   0  0  0  0  0  0
   -0.4093    5.8423    1.2155 C   0  0  0  0  0  0
   -1.3987    5.7924    2.2179 C   0  0  0  0  0  0
   -1.9439    4.5548    2.6075 C   0  0  0  0  0  0
   -1.5091    3.3660    1.9908 C   0  0  0  0  0  0
   -0.5321    3.4070    0.9691 C   0  0  0  0  0  0
    0.0228    4.6498    0.5985 C   0  0  0  0  0  0
   -0.0536    2.2513    0.3352 N   0  0  0  0  0  0
   -0.6687    0.9954    0.2074 C   0  0  0  0  0  0
   -2.0780    0.8807    0.1199 C   0  0  0  0  0  0
   -2.6708   -0.3879   -0.0371 C   0  0  0  0  0  0
   -1.8945   -1.4883   -0.1159 N   0  3  0  0  0  0
   -0.5475   -1.4356   -0.0560 C   0  0  0  0  0  0
    0.1042   -0.1933    0.1020 C   0  0  0  0  0  0
    1.9045   -0.1858    0.1622 S   0  0  0  0  0  0
    2.2861    0.7034    1.2707 O   0  0  0  0  0  0
    2.3246   -1.5944    0.2364 O   0  0  0  0  0  0
    2.1549    0.4668   -1.2986 N   0  5  0  0  0  0
    3.3983    0.6650   -1.7855 C   0  0  0  0  0  0
    3.4214    1.2057   -3.0135 N   0  0  0  0  0  0
    4.6159    1.5268   -3.7918 C   0  0  0  0  0  0
    5.1632    0.2692   -4.4864 C   0  0  0  0  0  0
    4.2814    2.6304   -4.8041 C   0  0  0  0  0  0
    4.4539    0.3940   -1.2111 O   0  0  0  0  0  0
    0.1482    7.8897    1.6190 H   0  0  0  0  0  0
   -0.3696    7.5837   -0.0439 H   0  0  0  0  0  0
    1.2277    7.0541    0.5011 H   0  0  0  0  0  0
   -1.7363    6.7006    2.6957 H   0  0  0  0  0  0
   -2.6923    4.5168    3.3852 H   0  0  0  0  0  0
   -1.9250    2.4267    2.3227 H   0  0  0  0  0  0
    0.7824    4.6909   -0.1692 H   0  0  0  0  0  0
    0.8970    2.3061   -0.0054 H   0  0  0  0  0  0
   -2.7095    1.7559    0.1570 H   0  0  0  0  0  0
   -3.7358   -0.5523   -0.1104 H   0  0  0  0  0  0
   -0.0386   -2.3842   -0.1422 H   0  0  0  0  0  0
    2.5328    1.4116   -3.4462 H   0  0  0  0  0  0
    5.3836    1.9154   -3.1202 H   0  0  0  0  0  0
    6.0573    0.5005   -5.0659 H   0  0  0  0  0  0
    4.4271   -0.1611   -5.1665 H   0  0  0  0  0  0
    5.4350   -0.4985   -3.7609 H   0  0  0  0  0  0
    5.1608    2.9073   -5.3864 H   0  0  0  0  0  0
    3.9240    3.5296   -4.3008 H   0  0  0  0  0  0
    3.5076    2.3086   -5.5025 H   0  0  0  0  0  0
   -2.3427   -2.3974   -0.2330 H   0  0  0  0  0  0
  1  2  1  0  0  0
  1 25  1  0  0  0
  1 26  1  0  0  0
  1 27  1  0  0  0
  2  7  2  0  0  0
  2  3  1  0  0  0
  3  4  2  0  0  0
  3 28  1  0  0  0
  4  5  1  0  0  0
  4 29  1  0  0  0
  5  6  2  0  0  0
  5 30  1  0  0  0
  6  7  1  0  0  0
  6  8  1  0  0  0
  7 31  1  0  0  0
  8  9  1  0  0  0
  8 32  1  0  0  0
  9 14  2  0  0  0
  9 10  1  0  0  0
 10 11  2  0  0  0
 10 33  1  0  0  0
 11 12  1  0  0  0
 11 34  1  0  0  0
 12 13  2  0  0  0
 12 44  1  0  0  0
 13 14  1  0  0  0
 13 35  1  0  0  0
 14 15  1  0  0  0
 15 16  2  0  0  0
 15 17  2  0  0  0
 15 18  1  0  0  0
 18 19  1  0  0  0
 19 20  1  0  0  0
 19 24  2  0  0  0
 20 21  1  0  0  0
 20 36  1  0  0  0
 21 22  1  0  0  0
 21 23  1  0  0  0
 21 37  1  0  0  0
 22 38  1  0  0  0
 22 39  1  0  0  0
 22 40  1  0  0  0
 23 41  1  0  0  0
 23 42  1  0  0  0
 23 43  1  0  0  0
M  CHG  2  12   1  18  -1
M  END
> <s_m_entry_id>
93

> <s_m_entry_name>
biosynth_p1.0.sdf.86

> <s_m_Source_Path>
/Users/Sebastito/Downloads

> <s_m_Source_File>
biosynth_p1.0.sdf.gz

> <i_m_Source_File_Index>
86

> <chiral flag>
0

> <version>
0

> <i_m_ct_enhanced_stereo_status>
0

> <s_m_source_file>
ligprep_vs.maegz

> <i_m_source_file_index>
86

> <i_lp_mmshare_version>
37011

> <r_lp_tautomer_probability>
1

> <r_epik_Ionization_Penalty>
0.404352

> <r_epik_Ionization_Penalty_Charging>
0.404341

> <r_epik_Ionization_Penalty_Neutral>
1.02006e-05

> <r_epik_State_Penalty>
0.41018

> <r_epik_Charging_Adjusted_Penalty>
0.814521

> <i_epik_Tot_Q>
0

> <i_epik_Tot_abs_Q>
2

> <i_f3d_flags>
0

> <s_lp_Force_Field>
OPLS_2005

> <r_lp_Energy>
20.1145

> <b_lp_Chiralities_Consistent>
1

> <s_lp_Variant>
ZINC00005823-1

$$$$
ZINC00005823
                    3D
 Structure written by MMmdl.
 43 44  0  0  1  0            999 V2000
    0.2311    7.1045    0.7529 C   0  0  0  0  0  0
   -0.3886    5.7858    1.1670 C   0  0  0  0  0  0
   -1.3844    5.7534    2.1636 C   0  0  0  0  0  0
   -1.9512    4.5250    2.5520 C   0  0  0  0  0  0
   -1.5316    3.3284    1.9398 C   0  0  0  0  0  0
   -0.5484    3.3523    0.9237 C   0  0  0  0  0  0
    0.0274    4.5858    0.5541 C   0  0  0  0  0  0
   -0.0818    2.1892    0.2944 N   0  0  0  0  0  0
   -0.6975    0.9313    0.1916 C   0  0  0  0  0  0
   -2.1046    0.8080    0.1160 C   0  0  0  0  0  0
   -2.6737   -0.4734   -0.0163 C   0  0  0  0  0  0
   -1.9457   -1.6062   -0.0868 N   0  0  0  0  0  0
   -0.6013   -1.4930   -0.0336 C   0  0  0  0  0  0
    0.0715   -0.2583    0.0988 C   0  0  0  0  0  0
    1.8747   -0.2533    0.1463 S   0  0  0  0  0  0
    2.2632    0.6518    1.2401 O   0  0  0  0  0  0
    2.3041   -1.6582    0.2366 O   0  0  0  0  0  0
    2.1195    0.3795   -1.3247 N   0  5  0  0  0  0
    3.3539    0.6987   -1.7681 C   0  0  0  0  0  0
    3.3702    1.2019   -3.0123 N   0  0  0  0  0  0
    4.5538    1.6303   -3.7546 C   0  0  0  0  0  0
    5.2690    0.4206   -4.3782 C   0  0  0  0  0  0
    4.1424    2.6534   -4.8216 C   0  0  0  0  0  0
    4.4077    0.5630   -1.1444 O   0  0  0  0  0  0
    0.1995    7.8245    1.5712 H   0  0  0  0  0  0
   -0.3100    7.5239   -0.0954 H   0  0  0  0  0  0
    1.2737    6.9688    0.4634 H   0  0  0  0  0  0
   -1.7106    6.6673    2.6378 H   0  0  0  0  0  0
   -2.7047    4.4991    3.3252 H   0  0  0  0  0  0
   -1.9637    2.3963    2.2711 H   0  0  0  0  0  0
    0.7918    4.6130   -0.2093 H   0  0  0  0  0  0
    0.8675    2.2342   -0.0502 H   0  0  0  0  0  0
   -2.7469    1.6754    0.1426 H   0  0  0  0  0  0
   -3.7457   -0.5899   -0.0757 H   0  0  0  0  0  0
   -0.0567   -2.4222   -0.1060 H   0  0  0  0  0  0
    2.4827    1.2937   -3.4848 H   0  0  0  0  0  0
    5.2416    2.1269   -3.0678 H   0  0  0  0  0  0
    6.1526    0.7330   -4.9352 H   0  0  0  0  0  0
    4.6144   -0.1162   -5.0656 H   0  0  0  0  0  0
    5.5975   -0.2844   -3.6139 H   0  0  0  0  0  0
    5.0116    3.0182   -5.3697 H   0  0  0  0  0  0
    3.6524    3.5168   -4.3700 H   0  0  0  0  0  0
    3.4516    2.2179   -5.5448 H   0  0  0  0  0  0
  1  2  1  0  0  0
  1 25  1  0  0  0
  1 26  1  0  0  0
  1 27  1  0  0  0
  2  7  2  0  0  0
  2  3  1  0  0  0
  3  4  2  0  0  0
  3 28  1  0  0  0
  4  5  1  0  0  0
  4 29  1  0  0  0
  5  6  2  0  0  0
  5 30  1  0  0  0
  6  7  1  0  0  0
  6  8  1  0  0  0
  7 31  1  0  0  0
  8  9  1  0  0  0
  8 32  1  0  0  0
  9 14  2  0  0  0
  9 10  1  0  0  0
 10 11  2  0  0  0
 10 33  1  0  0  0
 11 12  1  0  0  0
 11 34  1  0  0  0
 12 13  2  0  0  0
 13 14  1  0  0  0
 13 35  1  0  0  0
 14 15  1  0  0  0
 15 16  2  0  0  0
 15 17  2  0  0  0
 15 18  1  0  0  0
 18 19  1  0  0  0
 19 20  1  0  0  0
 19 24  2  0  0  0
 20 21  1  0  0  0
 20 36  1  0  0  0
 21 22  1  0  0  0
 21 23  1  0  0  0
 21 37  1  0  0  0
 22 38  1  0  0  0
 22 39  1  0  0  0
 22 40  1  0  0  0
 23 41  1  0  0  0
 23 42  1  0  0  0
 23 43  1  0  0  0
M  CHG  1  18  -1
M  END
> <s_m_entry_id>
93

> <s_m_entry_name>
biosynth_p1.0.sdf.86

> <s_m_Source_Path>
/Users/Sebastito/Downloads

> <s_m_Source_File>
biosynth_p1.0.sdf.gz

> <i_m_Source_File_Index>
86

> <chiral flag>
0

> <version>
0

> <i_m_ct_enhanced_stereo_status>
0

> <s_m_source_file>
ligprep_vs.maegz

> <i_m_source_file_index>
86

> <i_lp_mmshare_version>
37011

> <r_lp_tautomer_probability>
0.999999

> <r_epik_Ionization_Penalty>
0.435933

> <r_epik_Ionization_Penalty_Charging>
0.0180292

> <r_epik_Ionization_Penalty_Neutral>
0.417904

> <r_epik_State_Penalty>
0.425504

> <r_epik_Charging_Adjusted_Penalty>
0.443533

> <i_epik_Tot_Q>
-1

> <i_epik_Tot_abs_Q>
1

> <i_f3d_flags>
0

> <s_lp_Force_Field>
OPLS_2005

> <r_lp_Energy>
22.6424

> <b_lp_Chiralities_Consistent>
1

> <s_lp_Variant>
ZINC00005823-2

$$$$
ZINC00005823
                    3D
 Structure written by MMmdl.
 44 45  0  0  1  0            999 V2000
    0.9404    6.9073    0.2968 C   0  0  0  0  0  0
    0.1444    5.6920    0.7259 C   0  0  0  0  0  0
   -1.0019    5.8468    1.5311 C   0  0  0  0  0  0
   -1.7374    4.7163    1.9339 C   0  0  0  0  0  0
   -1.3350    3.4298    1.5266 C   0  0  0  0  0  0
   -0.1981    3.2664    0.7026 C   0  0  0  0  0  0
    0.5439    4.4025    0.3186 C   0  0  0  0  0  0
    0.2584    2.0082    0.2875 N   0  0  0  0  0  0
   -0.4628    0.8210    0.0905 C   0  0  0  0  0  0
   -1.8415    0.8430   -0.2251 C   0  0  0  0  0  0
   -2.5149   -0.3738   -0.4455 C   0  0  0  0  0  0
   -1.9106   -1.5774   -0.3844 N   0  0  0  0  0  0
   -0.5920   -1.6039   -0.1003 C   0  0  0  0  0  0
    0.1783   -0.4445    0.1380 C   0  0  0  0  0  0
    1.9356   -0.6495    0.4959 S   0  0  0  0  0  0
    2.3826    0.3884    1.4388 O   0  0  0  0  0  0
    2.1667   -2.0673    0.8137 O   0  0  0  0  0  0
    2.6686   -0.3663   -1.0496 N   0  0  0  0  0  0
    2.9974    0.8791   -1.5906 C   0  0  0  0  0  0
    3.2423    0.8459   -2.9083 N   0  0  0  0  0  0
    3.5566    2.0081   -3.7341 C   0  0  0  0  0  0
    4.3237    1.5550   -4.9835 C   0  0  0  0  0  0
    2.2720    2.7687   -4.1019 C   0  0  0  0  0  0
    3.0302    1.9065   -0.9146 O   0  0  0  0  0  0
    0.9682    7.6512    1.0937 H   0  0  0  0  0  0
    0.4864    7.3624   -0.5837 H   0  0  0  0  0  0
    1.9682    6.6368    0.0525 H   0  0  0  0  0  0
   -1.3158    6.8307    1.8476 H   0  0  0  0  0  0
   -2.6085    4.8345    2.5613 H   0  0  0  0  0  0
   -1.9002    2.5745    1.8652 H   0  0  0  0  0  0
    1.4234    4.2846   -0.2986 H   0  0  0  0  0  0
    1.2519    1.9511    0.1076 H   0  0  0  0  0  0
   -2.3842    1.7718   -0.3171 H   0  0  0  0  0  0
   -3.5674   -0.3788   -0.6876 H   0  0  0  0  0  0
   -0.1446   -2.5861   -0.0735 H   0  0  0  0  0  0
    3.1898   -0.0450   -3.3803 H   0  0  0  0  0  0
    4.2073    2.6778   -3.1690 H   0  0  0  0  0  0
    4.5942    2.4076   -5.6069 H   0  0  0  0  0  0
    3.7277    0.8739   -5.5921 H   0  0  0  0  0  0
    5.2466    1.0407   -4.7135 H   0  0  0  0  0  0
    2.4957    3.6403   -4.7173 H   0  0  0  0  0  0
    1.7510    3.1231   -3.2117 H   0  0  0  0  0  0
    1.5822    2.1353   -4.6607 H   0  0  0  0  0  0
    2.6116   -1.1863   -1.6523 H   0  0  0  0  0  0
  1  2  1  0  0  0
  1 25  1  0  0  0
  1 26  1  0  0  0
  1 27  1  0  0  0
  2  7  2  0  0  0
  2  3  1  0  0  0
  3  4  2  0  0  0
  3 28  1  0  0  0
  4  5  1  0  0  0
  4 29  1  0  0  0
  5  6  2  0  0  0
  5 30  1  0  0  0
  6  7  1  0  0  0
  6  8  1  0  0  0
  7 31  1  0  0  0
  8  9  1  0  0  0
  8 32  1  0  0  0
  9 14  2  0  0  0
  9 10  1  0  0  0
 10 11  2  0  0  0
 10 33  1  0  0  0
 11 12  1  0  0  0
 11 34  1  0  0  0
 12 13  2  0  0  0
 13 14  1  0  0  0
 13 35  1  0  0  0
 14 15  1  0  0  0
 15 16  2  0  0  0
 15 17  2  0  0  0
 15 18  1  0  0  0
 18 19  1  0  0  0
 18 44  1  0  0  0
 19 20  1  0  0  0
 19 24  2  0  0  0
 20 21  1  0  0  0
 20 36  1  0  0  0
 21 22  1  0  0  0
 21 23  1  0  0  0
 21 37  1  0  0  0
 22 38  1  0  0  0
 22 39  1  0  0  0
 22 40  1  0  0  0
 23 41  1  0  0  0
 23 42  1  0  0  0
 23 43  1  0  0  0
M  END
> <s_m_entry_id>
93

> <s_m_entry_name>
biosynth_p1.0.sdf.86

> <s_m_Source_Path>
/Users/Sebastito/Downloads

> <s_m_Source_File>
biosynth_p1.0.sdf.gz

> <i_m_Source_File_Index>
86

> <chiral flag>
0

> <version>
0

> <i_m_ct_enhanced_stereo_status>
0

> <s_m_source_file>
ligprep_vs.maegz

> <i_m_source_file_index>
86

> <i_lp_mmshare_version>
37011

> <r_epik_Ionization_Penalty>
2.08248

> <r_epik_Ionization_Penalty_Charging>
0

> <r_epik_Ionization_Penalty_Neutral>
2.08248

> <r_epik_State_Penalty>
2.62382

> <r_epik_Charging_Adjusted_Penalty>
2.62382

> <i_epik_Tot_Q>
0

> <i_epik_Tot_abs_Q>
0

> <i_f3d_flags>
0

> <s_lp_Force_Field>
OPLS_2005

> <r_lp_Energy>
16.2464

> <b_lp_Chiralities_Consistent>
1

> <s_lp_Variant>
ZINC00005823-3

$$$$
ZINC38612156
                    3D
 Structure written by MMmdl.
 42 44  0  0  1  0            999 V2000
    0.0180    0.0045   -2.5077 C   0  0  0  0  0  0
   -0.3547   -0.7843   -1.2443 C   0  0  0  0  0  0
    0.0668   -0.0843    0.0605 C   0  0  1  0  0  0
   -0.3381    0.9272    0.0268 H   0  0  0  0  0  0
   -0.5205   -0.8084    1.2832 C   0  0  0  0  0  0
    1.5215   -0.0221    0.1523 N   0  0  0  0  0  0
    2.2080    1.0770    0.7054 C   0  0  0  0  0  0
    1.5362    1.9696    1.5701 C   0  0  0  0  0  0
    2.2105    3.0471    2.1592 C   0  0  0  0  0  0
    3.5750    3.2601    1.9071 C   0  0  0  0  0  0
    4.2816    2.3842    1.0344 C   0  0  0  0  0  0
    3.5936    1.2905    0.4265 C   0  0  0  0  0  0
    4.3554    0.3938   -0.5105 C   0  0  0  0  0  0
    3.8241   -0.1687   -1.4694 O   0  0  0  0  0  0
    5.8159    0.2506   -0.1952 C   0  0  0  0  0  0
    6.5378   -0.9328   -0.5237 C   0  0  0  0  0  0
    7.9092   -1.0273   -0.2329 C   0  0  0  0  0  0
    8.5743    0.0305    0.4016 C   0  0  0  0  0  0
    7.8822    1.2034    0.7579 C   0  0  0  0  0  0
    6.4967    1.3301    0.4419 C   0  0  0  0  0  0
    5.7378    2.5865    0.7366 C   0  0  0  0  0  0
    6.2690    3.6981    0.7266 O   0  0  0  0  0  0
    8.6371    2.2436    1.4743 N   0  3  0  0  0  0
    9.6188    2.7186    0.9138 O   0  0  0  0  0  0
    8.2635    2.5517    2.6016 O   0  5  0  0  0  0
    5.9533   -2.0230   -1.1084 O   0  5  0  0  0  0
    4.1777    4.3378    2.5626 N   0  0  0  0  0  0
   -0.3383   -0.5070   -3.4019 H   0  0  0  0  0  0
    1.0980    0.1199   -2.6037 H   0  0  0  0  0  0
   -0.4260    1.0000   -2.4950 H   0  0  0  0  0  0
   -1.4357   -0.9287   -1.2403 H   0  0  0  0  0  0
    0.0843   -1.7820   -1.2924 H   0  0  0  0  0  0
   -1.6096   -0.8286    1.2396 H   0  0  0  0  0  0
   -0.2409   -0.3199    2.2164 H   0  0  0  0  0  0
   -0.1717   -1.8404    1.3352 H   0  0  0  0  0  0
    2.0402   -0.6178   -0.4791 H   0  0  0  0  0  0
    0.4934    1.8406    1.8141 H   0  0  0  0  0  0
    1.6712    3.7072    2.8230 H   0  0  0  0  0  0
    8.4562   -1.9247   -0.4844 H   0  0  0  0  0  0
    9.6243   -0.0691    0.6347 H   0  0  0  0  0  0
    5.1241    4.6129    2.3394 H   0  0  0  0  0  0
    3.6253    5.0022    3.0854 H   0  0  0  0  0  0
  1  2  1  0  0  0
  1 28  1  0  0  0
  1 29  1  0  0  0
  1 30  1  0  0  0
  2  3  1  0  0  0
  2 31  1  0  0  0
  2 32  1  0  0  0
  3  4  1  0  0  0
  3  5  1  0  0  0
  3  6  1  0  0  0
  5 33  1  0  0  0
  5 34  1  0  0  0
  5 35  1  0  0  0
  6  7  1  0  0  0
  6 36  1  0  0  0
  7 12  2  0  0  0
  7  8  1  0  0  0
  8  9  2  0  0  0
  8 37  1  0  0  0
  9 10  1  0  0  0
  9 38  1  0  0  0
 10 11  2  0  0  0
 10 27  1  0  0  0
 11 21  1  0  0  0
 11 12  1  0  0  0
 12 13  1  0  0  0
 13 14  2  0  0  0
 13 15  1  0  0  0
 15 20  2  0  0  0
 15 16  1  0  0  0
 16 17  2  0  0  0
 16 26  1  0  0  0
 17 18  1  0  0  0
 17 39  1  0  0  0
 18 19  2  0  0  0
 18 40  1  0  0  0
 19 20  1  0  0  0
 19 23  1  0  0  0
 20 21  1  0  0  0
 21 22  2  0  0  0
 23 24  2  0  0  0
 23 25  1  0  0  0
 27 41  1  0  0  0
 27 42  1  0  0  0
M  CHG  3  23   1  25  -1  26  -1
M  END
> <s_m_entry_id>
94

> <s_m_entry_name>
biosynth_p1.0.sdf.87

> <s_m_Source_Path>
/Users/Sebastito/Downloads

> <s_m_Source_File>
biosynth_p1.0.sdf.gz

> <i_m_Source_File_Index>
87

> <chiral flag>
1

> <version>
0

> <i_m_ct_enhanced_stereo_status>
0

> <s_m_source_file>
ligprep_vs.maegz

> <i_m_source_file_index>
87

> <i_lp_mmshare_version>
37011

> <r_epik_Ionization_Penalty>
0.096373

> <r_epik_Ionization_Penalty_Charging>
0.0963431

> <r_epik_Ionization_Penalty_Neutral>
2.98705e-05

> <r_epik_State_Penalty>
0.0864979

> <r_epik_Charging_Adjusted_Penalty>
0.182841

> <i_epik_Tot_Q>
-1

> <i_epik_Tot_abs_Q>
3

> <i_f3d_flags>
0

> <s_lp_Force_Field>
OPLS_2005

> <r_lp_Energy>
42.8145

> <b_lp_Chiralities_Consistent>
1

> <s_lp_Variant>
ZINC38612156-1

$$$$
ZINC38612156
                    3D
 Structure written by MMmdl.
 43 45  0  0  1  0            999 V2000
    0.0051    0.0024   -2.5101 C   0  0  0  0  0  0
   -0.3711   -0.7777   -1.2425 C   0  0  0  0  0  0
    0.0590   -0.0740    0.0580 C   0  0  1  0  0  0
   -0.3406    0.9396    0.0208 H   0  0  0  0  0  0
   -0.5290   -0.7897    1.2855 C   0  0  0  0  0  0
    1.5146   -0.0183    0.1445 N   0  0  0  0  0  0
    2.2078    1.0759    0.6995 C   0  0  0  0  0  0
    1.5402    1.9703    1.5655 C   0  0  0  0  0  0
    2.2200    3.0407    2.1605 C   0  0  0  0  0  0
    3.5856    3.2470    1.9105 C   0  0  0  0  0  0
    4.2882    2.3717    1.0341 C   0  0  0  0  0  0
    3.5953    1.2822    0.4224 C   0  0  0  0  0  0
    4.3544    0.3798   -0.5122 C   0  0  0  0  0  0
    3.8210   -0.2052   -1.4561 O   0  0  0  0  0  0
    5.8160    0.2453   -0.2111 C   0  0  0  0  0  0
    6.5317   -0.9324   -0.5628 C   0  0  0  0  0  0
    7.9049   -1.0347   -0.2838 C   0  0  0  0  0  0
    8.5760    0.0135    0.3615 C   0  0  0  0  0  0
    7.8888    1.1841    0.7369 C   0  0  0  0  0  0
    6.5014    1.3173    0.4311 C   0  0  0  0  0  0
    5.7455    2.5719    0.7386 C   0  0  0  0  0  0
    6.2808    3.6812    0.7381 O   0  0  0  0  0  0
    8.6499    2.2134    1.4628 N   0  3  0  0  0  0
    9.6373    2.6832    0.9084 O   0  0  0  0  0  0
    8.2761    2.5148    2.5916 O   0  5  0  0  0  0
    5.9314   -2.0049   -1.1619 O   0  0  0  0  0  0
    4.1933    4.3181    2.5723 N   0  0  0  0  0  0
   -0.3597   -0.5082   -3.4015 H   0  0  0  0  0  0
    1.0857    0.1064   -2.6100 H   0  0  0  0  0  0
   -0.4284    1.0027   -2.4993 H   0  0  0  0  0  0
   -1.4533   -0.9138   -1.2351 H   0  0  0  0  0  0
    0.0592   -1.7794   -1.2875 H   0  0  0  0  0  0
   -1.6186   -0.7992    1.2474 H   0  0  0  0  0  0
   -0.2406   -0.3020    2.2165 H   0  0  0  0  0  0
   -0.1907   -1.8251    1.3387 H   0  0  0  0  0  0
    2.0262   -0.6130   -0.4929 H   0  0  0  0  0  0
    0.4960    1.8479    1.8073 H   0  0  0  0  0  0
    1.6833    3.7010    2.8265 H   0  0  0  0  0  0
    8.4480   -1.9293   -0.5517 H   0  0  0  0  0  0
    9.6273   -0.0909    0.5869 H   0  0  0  0  0  0
    5.1387    4.5945    2.3465 H   0  0  0  0  0  0
    3.6419    4.9842    3.0937 H   0  0  0  0  0  0
    6.5297   -2.7131   -1.3446 H   0  0  0  0  0  0
  1  2  1  0  0  0
  1 28  1  0  0  0
  1 29  1  0  0  0
  1 30  1  0  0  0
  2  3  1  0  0  0
  2 31  1  0  0  0
  2 32  1  0  0  0
  3  4  1  0  0  0
  3  5  1  0  0  0
  3  6  1  0  0  0
  5 33  1  0  0  0
  5 34  1  0  0  0
  5 35  1  0  0  0
  6  7  1  0  0  0
  6 36  1  0  0  0
  7 12  2  0  0  0
  7  8  1  0  0  0
  8  9  2  0  0  0
  8 37  1  0  0  0
  9 10  1  0  0  0
  9 38  1  0  0  0
 10 11  2  0  0  0
 10 27  1  0  0  0
 11 21  1  0  0  0
 11 12  1  0  0  0
 12 13  1  0  0  0
 13 14  2  0  0  0
 13 15  1  0  0  0
 15 20  2  0  0  0
 15 16  1  0  0  0
 16 17  2  0  0  0
 16 26  1  0  0  0
 17 18  1  0  0  0
 17 39  1  0  0  0
 18 19  2  0  0  0
 18 40  1  0  0  0
 19 20  1  0  0  0
 19 23  1  0  0  0
 20 21  1  0  0  0
 21 22  2  0  0  0
 23 24  2  0  0  0
 23 25  1  0  0  0
 26 43  1  0  0  0
 27 41  1  0  0  0
 27 42  1  0  0  0
M  CHG  2  23   1  25  -1
M  END
> <s_m_entry_id>
94

> <s_m_entry_name>
biosynth_p1.0.sdf.87

> <s_m_Source_Path>
/Users/Sebastito/Downloads

> <s_m_Source_File>
biosynth_p1.0.sdf.gz

> <i_m_Source_File_Index>
87

> <chiral flag>
1

> <version>
0

> <i_m_ct_enhanced_stereo_status>
0

> <s_m_source_file>
ligprep_vs.maegz

> <i_m_source_file_index>
87

> <i_lp_mmshare_version>
37011

> <r_epik_Ionization_Penalty>
1.12374

> <r_epik_Ionization_Penalty_Charging>
0

> <r_epik_Ionization_Penalty_Neutral>
1.12374

> <r_epik_State_Penalty>
1.18279

> <r_epik_Charging_Adjusted_Penalty>
1.18279

> <i_epik_Tot_Q>
0

> <i_epik_Tot_abs_Q>
2

> <i_f3d_flags>
0

> <s_lp_Force_Field>
OPLS_2005

> <r_lp_Energy>
40.8903

> <b_lp_Chiralities_Consistent>
1

> <s_lp_Variant>
ZINC38612156-2

$$$$
ZINC60184549
                    3D
 Structure written by MMmdl.
 73 75  0  0  1  0            999 V2000
   -2.8763    2.7673   -2.8440 C   0  0  0  0  0  0
   -2.2378    3.3033   -1.5443 C   0  0  2  0  0  0
   -0.6995    3.2425   -1.6193 C   0  0  0  0  0  0
   -0.2569    1.8959   -1.4892 O   0  0  0  0  0  0
   -0.5338    1.3201   -0.2470 C   0  0  1  0  0  0
   -0.1185    1.9595    0.5358 H   0  0  0  0  0  0
   -2.0634    1.1951   -0.0716 C   0  0  1  0  0  0
   -2.2388    0.8327    0.9414 H   0  0  0  0  0  0
   -2.7007    2.6009   -0.2405 C   0  0  2  0  0  0
   -2.3376    3.2101    0.5901 H   0  0  0  0  0  0
   -4.1803    2.5787   -0.1299 N   0  3  0  0  0  0
   -4.7123    2.2850    1.2155 C   0  0  0  0  0  0
   -2.6111    0.2362   -0.9572 O   0  0  0  0  0  0
    0.0375    0.0558   -0.0976 O   0  0  0  0  0  0
    1.4643    0.0327   -0.1524 C   0  0  2  0  0  0
    1.8830    1.0389   -0.2271 H   0  0  0  0  0  0
    1.9080   -0.7941   -1.3841 C   0  0  1  0  0  0
    2.9969   -0.7564   -1.4383 H   0  0  0  0  0  0
    1.4931   -2.2752   -1.2610 C   0  0  0  0  0  0
    2.0579   -2.9070    0.0280 C   0  0  1  0  0  0
    3.1467   -2.8643   -0.0281 H   0  0  0  0  0  0
    1.6148   -2.1257    1.2871 C   0  0  1  0  0  0
    2.1308   -2.5336    2.1593 H   0  0  0  0  0  0
    2.0126   -0.6407    1.1262 C   0  0  2  0  0  0
    3.1005   -0.6196    1.0446 H   0  0  0  0  0  0
    1.7487    0.1159    2.2896 O   0  0  0  0  0  0
    0.1961   -2.2228    1.4151 O   0  0  0  0  0  0
   -0.2350   -2.9299    2.5352 C   0  0  2  0  0  0
    0.2461   -3.9104    2.5290 H   0  0  0  0  0  0
   -1.7682   -3.1063    2.4424 C   0  0  1  0  0  0
   -2.0018   -3.6338    1.5167 H   0  0  0  0  0  0
   -2.2260   -3.9451    3.6475 C   0  0  0  0  0  0
   -1.5704   -3.4599    4.9214 C   0  0  0  0  0  0
   -0.4817   -2.6691    4.9102 C   0  0  0  0  0  0
    0.1243   -2.2888    3.7342 O   0  0  0  0  0  0
    0.2437   -2.1757    6.1473 C   0  0  0  0  0  0
    0.1226   -0.7151    6.2854 N   0  3  0  0  0  0
   -2.4537   -1.8001    2.4041 N   0  3  0  0  0  0
    1.7204   -4.3402    0.1193 N   0  3  0  0  0  0
    1.4275   -0.2056   -2.6481 N   0  3  0  0  0  0
   -2.5926    4.6700   -1.4488 O   0  0  0  0  0  0
   -2.5890    1.7372   -3.0492 H   0  0  0  0  0  0
   -2.5578    3.3570   -3.7047 H   0  0  0  0  0  0
   -3.9652    2.8103   -2.8141 H   0  0  0  0  0  0
   -0.3434    3.6425   -2.5695 H   0  0  0  0  0  0
   -0.2416    3.8502   -0.8364 H   0  0  0  0  0  0
   -5.7997    2.3603    1.2040 H   0  0  0  0  0  0
   -4.3318    2.9969    1.9489 H   0  0  0  0  0  0
   -4.4503    1.2769    1.5363 H   0  0  0  0  0  0
   -3.5441    0.1811   -0.8166 H   0  0  0  0  0  0
    0.4054   -2.3611   -1.2756 H   0  0  0  0  0  0
    1.8556   -2.8292   -2.1282 H   0  0  0  0  0  0
    0.8133    0.1698    2.4067 H   0  0  0  0  0  0
   -3.3108   -3.9087    3.7540 H   0  0  0  0  0  0
   -1.9571   -4.9926    3.5070 H   0  0  0  0  0  0
   -2.0006   -3.7921    5.8555 H   0  0  0  0  0  0
   -0.1600   -2.6556    7.0397 H   0  0  0  0  0  0
    1.2981   -2.4457    6.0807 H   0  0  0  0  0  0
    0.6171   -0.4173    7.1149 H   0  0  0  0  0  0
   -2.2481   -1.2874    3.2492 H   0  0  0  0  0  0
    0.7181   -4.4548    0.1654 H   0  0  0  0  0  0
    0.4173   -0.2004   -2.6581 H   0  0  0  0  0  0
   -2.1016    5.0681   -0.7458 H   0  0  0  0  0  0
    2.1452   -4.7389    0.9449 H   0  0  0  0  0  0
   -4.5135    3.4965   -0.3923 H   0  0  0  0  0  0
   -0.8507   -0.4591    6.3696 H   0  0  0  0  0  0
    1.7691   -0.7477   -3.4293 H   0  0  0  0  0  0
   -3.4508   -1.9487    2.3347 H   0  0  0  0  0  0
    2.0726   -4.8215   -0.6965 H   0  0  0  0  0  0
   -4.5498    1.9109   -0.7916 H   0  0  0  0  0  0
    1.7645    0.7436   -2.7297 H   0  0  0  0  0  0
    0.5276   -0.2629    5.4784 H   0  0  0  0  0  0
   -2.1335   -1.2785    1.6009 H   0  0  0  0  0  0
  1  2  1  0  0  0
  1 42  1  0  0  0
  1 43  1  0  0  0
  1 44  1  0  0  0
  2  9  1  0  0  0
  2  3  1  0  0  0
  2 41  1  0  0  0
  3  4  1  0  0  0
  3 45  1  0  0  0
  3 46  1  0  0  0
  4  5  1  0  0  0
  5  6  1  0  0  0
  5  7  1  0  0  0
  5 14  1  0  0  0
  7  8  1  0  0  0
  7  9  1  0  0  0
  7 13  1  0  0  0
  9 10  1  0  0  0
  9 11  1  0  0  0
 11 12  1  0  0  0
 11 65  1  0  0  0
 11 70  1  0  0  0
 12 47  1  0  0  0
 12 48  1  0  0  0
 12 49  1  0  0  0
 13 50  1  0  0  0
 14 15  1  0  0  0
 15 16  1  0  0  0
 15 24  1  0  0  0
 15 17  1  0  0  0
 17 18  1  0  0  0
 17 19  1  0  0  0
 17 40  1  0  0  0
 19 20  1  0  0  0
 19 51  1  0  0  0
 19 52  1  0  0  0
 20 21  1  0  0  0
 20 22  1  0  0  0
 20 39  1  0  0  0
 22 23  1  0  0  0
 22 24  1  0  0  0
 22 27  1  0  0  0
 24 25  1  0  0  0
 24 26  1  0  0  0
 26 53  1  0  0  0
 27 28  1  0  0  0
 28 29  1  0  0  0
 28 35  1  0  0  0
 28 30  1  0  0  0
 30 31  1  0  0  0
 30 32  1  0  0  0
 30 38  1  0  0  0
 32 33  1  0  0  0
 32 54  1  0  0  0
 32 55  1  0  0  0
 33 34  2  0  0  0
 33 56  1  0  0  0
 34 35  1  0  0  0
 34 36  1  0  0  0
 36 37  1  0  0  0
 36 57  1  0  0  0
 36 58  1  0  0  0
 37 59  1  0  0  0
 37 66  1  0  0  0
 37 72  1  0  0  0
 38 60  1  0  0  0
 38 68  1  0  0  0
 38 73  1  0  0  0
 39 61  1  0  0  0
 39 64  1  0  0  0
 39 69  1  0  0  0
 40 62  1  0  0  0
 40 67  1  0  0  0
 40 71  1  0  0  0
 41 63  1  0  0  0
M  CHG  5  11   1  37   1  38   1  39   1  40   1
M  END
> <s_m_entry_id>
95

> <s_m_entry_name>
biosynth_p1.0.sdf.88

> <s_m_Source_Path>
/Users/Sebastito/Downloads

> <s_m_Source_File>
biosynth_p1.0.sdf.gz

> <i_m_Source_File_Index>
88

> <chiral flag>
1

> <version>
0

> <i_m_ct_enhanced_stereo_status>
0

> <s_m_source_file>
ligprep_vs.maegz

> <i_m_source_file_index>
88

> <i_lp_mmshare_version>
37011

> <r_epik_Ionization_Penalty>
0.793538

> <r_epik_Ionization_Penalty_Charging>
0.79321

> <r_epik_Ionization_Penalty_Neutral>
0.000328124

> <r_epik_State_Penalty>
0.67119

> <r_epik_Charging_Adjusted_Penalty>
1.4644

> <i_epik_Tot_Q>
5

> <i_epik_Tot_abs_Q>
5

> <s_epik_Chemistry_Notes>
This compound contains an acetal/aminal-like group ( X-CH(R)-Y where X, Y are N, S, or O) that may be acid/base labile, releasing an aldehyde.

> <i_f3d_flags>
0

> <s_lp_Force_Field>
OPLS_2005

> <r_lp_Energy>
97.2085

> <b_lp_Chiralities_Consistent>
1

> <s_lp_Variant>
ZINC60184549-1

$$$$
ZINC60184549
                    3D
 Structure written by MMmdl.
 72 74  0  0  1  0            999 V2000
   -2.8566    2.9334   -2.5195 C   0  0  0  0  0  0
   -2.2829    3.2406   -1.1193 C   0  0  2  0  0  0
   -0.7398    3.2388   -1.1407 C   0  0  0  0  0  0
   -0.2466    1.9051   -1.2187 O   0  0  0  0  0  0
   -0.5559    1.1241   -0.1016 C   0  0  1  0  0  0
   -0.2082    1.6392    0.7972 H   0  0  0  0  0  0
   -2.0816    0.9139   -0.0373 C   0  0  1  0  0  0
   -2.2853    0.3669    0.8819 H   0  0  0  0  0  0
   -2.7681    2.3022    0.0185 C   0  0  2  0  0  0
   -2.4623    2.7645    0.9596 H   0  0  0  0  0  0
   -4.2477    2.2075    0.0586 N   0  3  0  0  0  0
   -4.8148    1.6577    1.3059 C   0  0  0  0  0  0
   -2.5438    0.1193   -1.1142 O   0  0  0  0  0  0
    0.0585   -0.1251   -0.1246 O   0  0  0  0  0  0
    1.4830   -0.0914   -0.1036 C   0  0  2  0  0  0
    1.8685    0.9306   -0.1259 H   0  0  0  0  0  0
    1.9884   -0.8470   -1.3533 C   0  0  1  0  0  0
    3.0768   -0.7757   -1.3769 H   0  0  0  0  0  0
    1.6086   -2.3423   -1.3066 C   0  0  0  0  0  0
    2.1344   -3.0197   -0.0228 C   0  0  1  0  0  0
    3.2240   -2.9681   -0.0379 H   0  0  0  0  0  0
    1.6374   -2.3000    1.2518 C   0  0  1  0  0  0
    2.1325   -2.7396    2.1207 H   0  0  0  0  0  0
    2.0055   -0.8012    1.1647 C   0  0  2  0  0  0
    3.0944   -0.7540    1.1160 H   0  0  0  0  0  0
    1.6976   -0.0937    2.3475 O   0  0  0  0  0  0
    0.2214   -2.4563    1.3126 O   0  0  0  0  0  0
   -0.2539   -3.0182    2.4955 C   0  0  2  0  0  0
    0.2875   -3.9516    2.6669 H   0  0  0  0  0  0
   -1.7556   -3.3346    2.3176 C   0  0  1  0  0  0
   -1.8466   -4.0270    1.4800 H   0  0  0  0  0  0
   -2.2435   -4.0430    3.5926 C   0  0  0  0  0  0
   -1.7556   -3.3132    4.8237 C   0  0  0  0  0  0
   -0.7286   -2.4450    4.7792 C   0  0  0  0  0  0
   -0.0364   -2.1976    3.6155 O   0  0  0  0  0  0
   -0.2331   -1.6289    5.9550 C   0  0  0  0  0  0
    1.0392   -2.1700    6.4598 N   0  3  0  0  0  0
   -2.5495   -2.1299    2.0182 N   0  0  0  0  0  0
    1.7947   -4.4549    0.0013 N   0  3  0  0  0  0
    1.5119   -0.2110   -2.5960 N   0  3  0  0  0  0
   -2.6891    4.5545   -0.7862 O   0  0  0  0  0  0
   -2.5213    1.9689   -2.8980 H   0  0  0  0  0  0
   -2.5349    3.6817   -3.2452 H   0  0  0  0  0  0
   -3.9467    2.9326   -2.5247 H   0  0  0  0  0  0
   -0.3647    3.8053   -1.9938 H   0  0  0  0  0  0
   -0.3332    3.7197   -0.2487 H   0  0  0  0  0  0
   -5.9031    1.6976    1.2628 H   0  0  0  0  0  0
   -4.4895    2.2379    2.1699 H   0  0  0  0  0  0
   -4.5237    0.6177    1.4512 H   0  0  0  0  0  0
   -3.4403   -0.1298   -0.9489 H   0  0  0  0  0  0
    0.5246   -2.4528   -1.3686 H   0  0  0  0  0  0
    2.0174   -2.8502   -2.1813 H   0  0  0  0  0  0
    0.7602   -0.1077    2.4684 H   0  0  0  0  0  0
   -3.3326   -4.1014    3.6069 H   0  0  0  0  0  0
   -1.8708   -5.0673    3.6314 H   0  0  0  0  0  0
   -2.2757   -3.5064    5.7508 H   0  0  0  0  0  0
   -0.0899   -0.5930    5.6460 H   0  0  0  0  0  0
   -0.9724   -1.6328    6.7570 H   0  0  0  0  0  0
    1.3524   -1.6149    7.2439 H   0  0  0  0  0  0
   -3.5308   -2.3796    1.8990 H   0  0  0  0  0  0
    0.7906   -4.5652    0.0159 H   0  0  0  0  0  0
    0.5023   -0.2417   -2.6254 H   0  0  0  0  0  0
   -2.3560    5.1501   -1.4409 H   0  0  0  0  0  0
    2.1918   -4.8857    0.8241 H   0  0  0  0  0  0
   -4.6091    3.1449   -0.0502 H   0  0  0  0  0  0
    1.7347   -2.1398    5.7282 H   0  0  0  0  0  0
    1.8869   -0.7004   -3.3960 H   0  0  0  0  0  0
   -2.5094   -1.4823    2.8038 H   0  0  0  0  0  0
    2.1681   -4.9051   -0.8227 H   0  0  0  0  0  0
   -4.5616    1.6542   -0.7258 H   0  0  0  0  0  0
    1.8152    0.7524   -2.6214 H   0  0  0  0  0  0
    0.9055   -3.1255    6.7590 H   0  0  0  0  0  0
  1  2  1  0  0  0
  1 42  1  0  0  0
  1 43  1  0  0  0
  1 44  1  0  0  0
  2  9  1  0  0  0
  2  3  1  0  0  0
  2 41  1  0  0  0
  3  4  1  0  0  0
  3 45  1  0  0  0
  3 46  1  0  0  0
  4  5  1  0  0  0
  5  6  1  0  0  0
  5  7  1  0  0  0
  5 14  1  0  0  0
  7  8  1  0  0  0
  7  9  1  0  0  0
  7 13  1  0  0  0
  9 10  1  0  0  0
  9 11  1  0  0  0
 11 12  1  0  0  0
 11 65  1  0  0  0
 11 70  1  0  0  0
 12 47  1  0  0  0
 12 48  1  0  0  0
 12 49  1  0  0  0
 13 50  1  0  0  0
 14 15  1  0  0  0
 15 16  1  0  0  0
 15 24  1  0  0  0
 15 17  1  0  0  0
 17 18  1  0  0  0
 17 19  1  0  0  0
 17 40  1  0  0  0
 19 20  1  0  0  0
 19 51  1  0  0  0
 19 52  1  0  0  0
 20 21  1  0  0  0
 20 22  1  0  0  0
 20 39  1  0  0  0
 22 23  1  0  0  0
 22 24  1  0  0  0
 22 27  1  0  0  0
 24 25  1  0  0  0
 24 26  1  0  0  0
 26 53  1  0  0  0
 27 28  1  0  0  0
 28 29  1  0  0  0
 28 35  1  0  0  0
 28 30  1  0  0  0
 30 31  1  0  0  0
 30 32  1  0  0  0
 30 38  1  0  0  0
 32 33  1  0  0  0
 32 54  1  0  0  0
 32 55  1  0  0  0
 33 34  2  0  0  0
 33 56  1  0  0  0
 34 35  1  0  0  0
 34 36  1  0  0  0
 36 37  1  0  0  0
 36 57  1  0  0  0
 36 58  1  0  0  0
 37 59  1  0  0  0
 37 66  1  0  0  0
 37 72  1  0  0  0
 38 60  1  0  0  0
 38 68  1  0  0  0
 39 61  1  0  0  0
 39 64  1  0  0  0
 39 69  1  0  0  0
 40 62  1  0  0  0
 40 67  1  0  0  0
 40 71  1  0  0  0
 41 63  1  0  0  0
M  CHG  4  11   1  37   1  39   1  40   1
M  END
> <s_m_entry_id>
95

> <s_m_entry_name>
biosynth_p1.0.sdf.88

> <s_m_Source_Path>
/Users/Sebastito/Downloads

> <s_m_Source_File>
biosynth_p1.0.sdf.gz

> <i_m_Source_File_Index>
88

> <chiral flag>
1

> <version>
0

> <i_m_ct_enhanced_stereo_status>
0

> <s_m_source_file>
ligprep_vs.maegz

> <i_m_source_file_index>
88

> <i_lp_mmshare_version>
37011

> <r_epik_Ionization_Penalty>
0.713919

> <r_epik_Ionization_Penalty_Charging>
0.276887

> <r_epik_Ionization_Penalty_Neutral>
0.437032

> <r_epik_State_Penalty>
0.777653

> <r_epik_Charging_Adjusted_Penalty>
1.05454

> <i_epik_Tot_Q>
4

> <i_epik_Tot_abs_Q>
4

> <s_epik_Chemistry_Notes>
This compound contains an acetal/aminal-like group ( X-CH(R)-Y where X, Y are N, S, or O) that may be acid/base labile, releasing an aldehyde.

> <i_f3d_flags>
0

> <s_lp_Force_Field>
OPLS_2005

> <r_lp_Energy>
76.236

> <b_lp_Chiralities_Consistent>
1

> <s_lp_Variant>
ZINC60184549-2

$$$$
ZINC60184549
                    3D
 Structure written by MMmdl.
 72 74  0  0  1  0            999 V2000
   -2.9831    2.8352   -1.6879 C   0  0  0  0  0  0
   -2.2104    3.0206   -0.3642 C   0  0  2  0  0  0
   -0.6861    3.0183   -0.6066 C   0  0  0  0  0  0
   -0.2253    1.6951   -0.8645 O   0  0  0  0  0  0
   -0.3895    0.8220    0.2137 C   0  0  1  0  0  0
    0.0795    1.2633    1.0958 H   0  0  0  0  0  0
   -1.8948    0.6071    0.4719 C   0  0  1  0  0  0
   -1.9818   -0.0218    1.3562 H   0  0  0  0  0  0
   -2.5394    1.9893    0.7483 C   0  0  2  0  0  0
   -2.0867    2.3667    1.6678 H   0  0  0  0  0  0
   -3.9970    1.9028    1.0085 N   0  3  0  0  0  0
   -4.3747    1.2609    2.2835 C   0  0  0  0  0  0
   -2.5159   -0.0888   -0.5934 O   0  0  0  0  0  0
    0.2098   -0.4153   -0.0006 O   0  0  0  0  0  0
    1.6344   -0.3777   -0.0537 C   0  0  2  0  0  0
    2.0205    0.6439   -0.0220 H   0  0  0  0  0  0
    2.0854   -1.0346   -1.3781 C   0  0  1  0  0  0
    3.1709   -0.9459   -1.4444 H   0  0  0  0  0  0
    1.7313   -2.5374   -1.4278 C   0  0  0  0  0  0
    2.3022   -3.2945   -0.2069 C   0  0  1  0  0  0
    3.3900   -3.2162   -0.2405 H   0  0  0  0  0  0
    1.8124   -2.6784    1.1242 C   0  0  1  0  0  0
    2.3006   -3.2037    1.9470 H   0  0  0  0  0  0
    2.2157   -1.1824    1.1278 C   0  0  2  0  0  0
    3.2992   -1.1620    1.0012 H   0  0  0  0  0  0
    2.0545   -0.5402    2.3734 O   0  0  0  0  0  0
    0.3978   -2.8869    1.1494 O   0  0  0  0  0  0
   -0.2154   -2.8944    2.4025 C   0  0  2  0  0  0
    0.4394   -3.3877    3.1240 H   0  0  0  0  0  0
   -1.5286   -3.6996    2.2763 C   0  0  1  0  0  0
   -1.2886   -4.7035    1.9242 H   0  0  0  0  0  0
   -2.1738   -3.7778    3.6687 C   0  0  0  0  0  0
   -2.1852   -2.4139    4.3186 C   0  0  0  0  0  0
   -1.3833   -1.4175    3.9032 C   0  0  0  0  0  0
   -0.4760   -1.5986    2.8797 O   0  0  0  0  0  0
   -1.3893   -0.0253    4.5119 C   0  0  0  0  0  0
   -0.5462    0.9155    3.7995 N   0  0  0  0  0  0
   -2.4402   -3.0768    1.2960 N   0  3  0  0  0  0
    2.0034   -4.7377   -0.2765 N   0  3  0  0  0  0
    1.5506   -0.3107   -2.5470 N   0  3  0  0  0  0
   -2.5476    4.3009    0.1347 O   0  0  0  0  0  0
   -2.7178    1.9075   -2.1928 H   0  0  0  0  0  0
   -2.7588    3.6434   -2.3852 H   0  0  0  0  0  0
   -4.0625    2.8356   -1.5355 H   0  0  0  0  0  0
   -0.4294    3.6545   -1.4544 H   0  0  0  0  0  0
   -0.1507    3.4225    0.2548 H   0  0  0  0  0  0
   -5.4567    1.3005    2.4092 H   0  0  0  0  0  0
   -3.9180    1.7779    3.1279 H   0  0  0  0  0  0
   -4.0730    0.2141    2.3091 H   0  0  0  0  0  0
   -3.4362   -0.1860   -0.4027 H   0  0  0  0  0  0
    0.6480   -2.6619   -1.4721 H   0  0  0  0  0  0
    2.1253   -2.9744   -2.3465 H   0  0  0  0  0  0
    1.1341   -0.5269    2.5894 H   0  0  0  0  0  0
   -3.1925   -4.1616    3.6001 H   0  0  0  0  0  0
   -1.6189   -4.4596    4.3142 H   0  0  0  0  0  0
   -2.8671   -2.2630    5.1431 H   0  0  0  0  0  0
   -2.4114    0.3532    4.5211 H   0  0  0  0  0  0
   -1.0568   -0.0844    5.5486 H   0  0  0  0  0  0
   -0.6375    1.8275    4.2260 H   0  0  0  0  0  0
   -2.6746   -2.1446    1.6042 H   0  0  0  0  0  0
    1.0044   -4.8823   -0.2482 H   0  0  0  0  0  0
    0.5410   -0.3452   -2.5375 H   0  0  0  0  0  0
   -2.3042    4.9510   -0.5078 H   0  0  0  0  0  0
    2.4331   -5.2111    0.5060 H   0  0  0  0  0  0
   -4.3508    2.8493    1.0328 H   0  0  0  0  0  0
    0.4214    0.6522    3.9248 H   0  0  0  0  0  0
    1.8939   -0.7345   -3.3974 H   0  0  0  0  0  0
   -3.2829   -3.6292    1.2218 H   0  0  0  0  0  0
    2.3723   -5.1186   -1.1366 H   0  0  0  0  0  0
   -4.4419    1.4201    0.2414 H   0  0  0  0  0  0
    1.8498    0.6538   -2.5125 H   0  0  0  0  0  0
   -1.9868   -3.0301    0.3948 H   0  0  0  0  0  0
  1  2  1  0  0  0
  1 42  1  0  0  0
  1 43  1  0  0  0
  1 44  1  0  0  0
  2  9  1  0  0  0
  2  3  1  0  0  0
  2 41  1  0  0  0
  3  4  1  0  0  0
  3 45  1  0  0  0
  3 46  1  0  0  0
  4  5  1  0  0  0
  5  6  1  0  0  0
  5  7  1  0  0  0
  5 14  1  0  0  0
  7  8  1  0  0  0
  7  9  1  0  0  0
  7 13  1  0  0  0
  9 10  1  0  0  0
  9 11  1  0  0  0
 11 12  1  0  0  0
 11 65  1  0  0  0
 11 70  1  0  0  0
 12 47  1  0  0  0
 12 48  1  0  0  0
 12 49  1  0  0  0
 13 50  1  0  0  0
 14 15  1  0  0  0
 15 16  1  0  0  0
 15 24  1  0  0  0
 15 17  1  0  0  0
 17 18  1  0  0  0
 17 19  1  0  0  0
 17 40  1  0  0  0
 19 20  1  0  0  0
 19 51  1  0  0  0
 19 52  1  0  0  0
 20 21  1  0  0  0
 20 22  1  0  0  0
 20 39  1  0  0  0
 22 23  1  0  0  0
 22 24  1  0  0  0
 22 27  1  0  0  0
 24 25  1  0  0  0
 24 26  1  0  0  0
 26 53  1  0  0  0
 27 28  1  0  0  0
 28 29  1  0  0  0
 28 35  1  0  0  0
 28 30  1  0  0  0
 30 31  1  0  0  0
 30 32  1  0  0  0
 30 38  1  0  0  0
 32 33  1  0  0  0
 32 54  1  0  0  0
 32 55  1  0  0  0
 33 34  2  0  0  0
 33 56  1  0  0  0
 34 35  1  0  0  0
 34 36  1  0  0  0
 36 37  1  0  0  0
 36 57  1  0  0  0
 36 58  1  0  0  0
 37 59  1  0  0  0
 37 66  1  0  0  0
 38 60  1  0  0  0
 38 68  1  0  0  0
 38 72  1  0  0  0
 39 61  1  0  0  0
 39 64  1  0  0  0
 39 69  1  0  0  0
 40 62  1  0  0  0
 40 67  1  0  0  0
 40 71  1  0  0  0
 41 63  1  0  0  0
M  CHG  4  11   1  38   1  39   1  40   1
M  END
> <s_m_entry_id>
95

> <s_m_entry_name>
biosynth_p1.0.sdf.88

> <s_m_Source_Path>
/Users/Sebastito/Downloads

> <s_m_Source_File>
biosynth_p1.0.sdf.gz

> <i_m_Source_File_Index>
88

> <chiral flag>
1

> <version>
0

> <i_m_ct_enhanced_stereo_status>
0

> <s_m_source_file>
ligprep_vs.maegz

> <i_m_source_file_index>
88

> <i_lp_mmshare_version>
37011

> <r_epik_Ionization_Penalty>
1.02815

> <r_epik_Ionization_Penalty_Charging>
0.339125

> <r_epik_Ionization_Penalty_Neutral>
0.68902

> <r_epik_State_Penalty>
1.12491

> <r_epik_Charging_Adjusted_Penalty>
1.46403

> <i_epik_Tot_Q>
4

> <i_epik_Tot_abs_Q>
4

> <s_epik_Chemistry_Notes>
This compound contains an acetal/aminal-like group ( X-CH(R)-Y where X, Y are N, S, or O) that may be acid/base labile, releasing an aldehyde.

> <i_f3d_flags>
0

> <s_lp_Force_Field>
OPLS_2005

> <r_lp_Energy>
73.8037

> <b_lp_Chiralities_Consistent>
1

> <s_lp_Variant>
ZINC60184549-3

$$$$
ZINC60184549
                    3D
 Structure written by MMmdl.
 71 73  0  0  1  0            999 V2000
   -3.1574    2.6397   -1.9841 C   0  0  0  0  0  0
   -2.6746    2.7085   -0.5188 C   0  0  2  0  0  0
   -1.1508    2.9426   -0.4503 C   0  0  0  0  0  0
   -0.4491    1.7519   -0.7949 O   0  0  0  0  0  0
   -0.6559    0.6956    0.0963 C   0  0  1  0  0  0
   -0.4087    1.0300    1.1067 H   0  0  0  0  0  0
   -2.1328    0.2574    0.0331 C   0  0  1  0  0  0
   -2.2739   -0.5068    0.7938 H   0  0  0  0  0  0
   -3.0304    1.4770    0.3555 C   0  0  2  0  0  0
   -2.8267    1.7563    1.3915 H   0  0  0  0  0  0
   -4.4731    1.1434    0.2775 N   0  3  0  0  0  0
   -4.9870    0.3039    1.3776 C   0  0  0  0  0  0
   -2.4544   -0.3349   -1.2108 O   0  0  0  0  0  0
    0.1419   -0.4069   -0.1912 O   0  0  0  0  0  0
    1.5388   -0.1983    0.0011 C   0  0  2  0  0  0
    1.7843    0.8620    0.0932 H   0  0  0  0  0  0
    2.2652   -0.7646   -1.2388 C   0  0  1  0  0  0
    3.3293   -0.5473   -1.1365 H   0  0  0  0  0  0
    2.1021   -2.2967   -1.3533 C   0  0  0  0  0  0
    2.5503   -3.0205   -0.0621 C   0  0  1  0  0  0
    3.6164   -2.8360    0.0773 H   0  0  0  0  0  0
    1.7972   -2.4894    1.1799 C   0  0  1  0  0  0
    2.2028   -2.9771    2.0682 H   0  0  0  0  0  0
    2.0257   -0.9574    1.2540 C   0  0  2  0  0  0
    3.1072   -0.8171    1.2871 H   0  0  0  0  0  0
    1.6222   -0.3541    2.4650 O   0  0  0  0  0  0
    0.4333   -2.8580    0.9721 O   0  0  0  0  0  0
   -0.3776   -2.9444    2.1020 C   0  0  2  0  0  0
    0.1892   -3.4111    2.9102 H   0  0  0  0  0  0
   -1.5839   -3.8436    1.7513 C   0  0  1  0  0  0
   -1.1894   -4.8231    1.4788 H   0  0  0  0  0  0
   -2.4438   -4.0029    3.0159 C   0  0  0  0  0  0
   -2.6421   -2.6706    3.7018 C   0  0  0  0  0  0
   -1.8566   -1.6070    3.4418 C   0  0  0  0  0  0
   -0.8049   -1.6908    2.5607 O   0  0  0  0  0  0
   -1.9937   -0.2127    4.0303 C   0  0  0  0  0  0
   -3.2825    0.0281    4.6509 N   0  0  0  0  0  0
   -2.3602   -3.3223    0.6118 N   0  0  0  0  0  0
    2.4031   -4.4830   -0.1915 N   0  3  0  0  0  0
    1.8265   -0.0801   -2.4698 N   0  3  0  0  0  0
   -3.2920    3.8415    0.0631 O   0  0  0  0  0  0
   -2.6626    1.8469   -2.5428 H   0  0  0  0  0  0
   -2.9418    3.5713   -2.5088 H   0  0  0  0  0  0
   -4.2330    2.4758   -2.0545 H   0  0  0  0  0  0
   -0.8527    3.7394   -1.1328 H   0  0  0  0  0  0
   -0.8463    3.2618    0.5484 H   0  0  0  0  0  0
   -6.0547    0.1324    1.2416 H   0  0  0  0  0  0
   -4.8445    0.7989    2.3380 H   0  0  0  0  0  0
   -4.4920   -0.6667    1.4061 H   0  0  0  0  0  0
   -1.9144   -1.1026   -1.3247 H   0  0  0  0  0  0
    1.0619   -2.5420   -1.5743 H   0  0  0  0  0  0
    2.6862   -2.6629   -2.1988 H   0  0  0  0  0  0
    2.0706   -0.7778    3.1813 H   0  0  0  0  0  0
   -3.4133   -4.4375    2.7696 H   0  0  0  0  0  0
   -1.9629   -4.6801    3.7224 H   0  0  0  0  0  0
   -3.4515   -2.6093    4.4145 H   0  0  0  0  0  0
   -1.2092   -0.0622    4.7723 H   0  0  0  0  0  0
   -1.8379    0.5240    3.2427 H   0  0  0  0  0  0
   -4.0280   -0.1391    3.9910 H   0  0  0  0  0  0
   -3.1343   -3.9504    0.3978 H   0  0  0  0  0  0
    1.4274   -4.7136   -0.3174 H   0  0  0  0  0  0
    0.8391   -0.2397   -2.6122 H   0  0  0  0  0  0
   -2.9254    3.9819    0.9232 H   0  0  0  0  0  0
    2.7479   -4.9354    0.6433 H   0  0  0  0  0  0
   -4.9876    2.0130    0.2916 H   0  0  0  0  0  0
   -3.4198   -0.6105    5.4219 H   0  0  0  0  0  0
    2.3428   -0.4363   -3.2619 H   0  0  0  0  0  0
   -2.7751   -2.4237    0.8529 H   0  0  0  0  0  0
    2.9297   -4.8090   -0.9896 H   0  0  0  0  0  0
   -4.6485    0.6833   -0.6047 H   0  0  0  0  0  0
    1.9926    0.9127   -2.3819 H   0  0  0  0  0  0
  1  2  1  0  0  0
  1 42  1  0  0  0
  1 43  1  0  0  0
  1 44  1  0  0  0
  2  9  1  0  0  0
  2  3  1  0  0  0
  2 41  1  0  0  0
  3  4  1  0  0  0
  3 45  1  0  0  0
  3 46  1  0  0  0
  4  5  1  0  0  0
  5  6  1  0  0  0
  5  7  1  0  0  0
  5 14  1  0  0  0
  7  8  1  0  0  0
  7  9  1  0  0  0
  7 13  1  0  0  0
  9 10  1  0  0  0
  9 11  1  0  0  0
 11 12  1  0  0  0
 11 65  1  0  0  0
 11 70  1  0  0  0
 12 47  1  0  0  0
 12 48  1  0  0  0
 12 49  1  0  0  0
 13 50  1  0  0  0
 14 15  1  0  0  0
 15 16  1  0  0  0
 15 24  1  0  0  0
 15 17  1  0  0  0
 17 18  1  0  0  0
 17 19  1  0  0  0
 17 40  1  0  0  0
 19 20  1  0  0  0
 19 51  1  0  0  0
 19 52  1  0  0  0
 20 21  1  0  0  0
 20 22  1  0  0  0
 20 39  1  0  0  0
 22 23  1  0  0  0
 22 24  1  0  0  0
 22 27  1  0  0  0
 24 25  1  0  0  0
 24 26  1  0  0  0
 26 53  1  0  0  0
 27 28  1  0  0  0
 28 29  1  0  0  0
 28 35  1  0  0  0
 28 30  1  0  0  0
 30 31  1  0  0  0
 30 32  1  0  0  0
 30 38  1  0  0  0
 32 33  1  0  0  0
 32 54  1  0  0  0
 32 55  1  0  0  0
 33 34  2  0  0  0
 33 56  1  0  0  0
 34 35  1  0  0  0
 34 36  1  0  0  0
 36 37  1  0  0  0
 36 57  1  0  0  0
 36 58  1  0  0  0
 37 59  1  0  0  0
 37 66  1  0  0  0
 38 60  1  0  0  0
 38 68  1  0  0  0
 39 61  1  0  0  0
 39 64  1  0  0  0
 39 69  1  0  0  0
 40 62  1  0  0  0
 40 67  1  0  0  0
 40 71  1  0  0  0
 41 63  1  0  0  0
M  CHG  3  11   1  39   1  40   1
M  END
> <s_m_entry_id>
95

> <s_m_entry_name>
biosynth_p1.0.sdf.88

> <s_m_Source_Path>
/Users/Sebastito/Downloads

> <s_m_Source_File>
biosynth_p1.0.sdf.gz

> <i_m_Source_File_Index>
88

> <chiral flag>
1

> <version>
0

> <i_m_ct_enhanced_stereo_status>
0

> <s_m_source_file>
ligprep_vs.maegz

> <i_m_source_file_index>
88

> <i_lp_mmshare_version>
37011

> <r_epik_Ionization_Penalty>
2.07721

> <r_epik_Ionization_Penalty_Charging>
0.163818

> <r_epik_Ionization_Penalty_Neutral>
1.91339

> <r_epik_State_Penalty>
1.83326

> <r_epik_Charging_Adjusted_Penalty>
1.99708

> <i_epik_Tot_Q>
3

> <i_epik_Tot_abs_Q>
3

> <s_epik_Chemistry_Notes>
This compound contains an acetal/aminal-like group ( X-CH(R)-Y where X, Y are N, S, or O) that may be acid/base labile, releasing an aldehyde.

> <i_f3d_flags>
0

> <s_lp_Force_Field>
OPLS_2005

> <r_lp_Energy>
65.5681

> <b_lp_Chiralities_Consistent>
1

> <s_lp_Variant>
ZINC60184549-4

$$$$
ZINC60184549
                    3D
 Structure written by MMmdl.
 72 74  0  0  1  0            999 V2000
   -2.9160    2.5757   -2.6288 C   0  0  0  0  0  0
   -2.5292    2.8922   -1.1679 C   0  0  2  0  0  0
   -1.0004    3.0266   -1.0157 C   0  0  0  0  0  0
   -0.3849    1.7439   -1.0666 O   0  0  0  0  0  0
   -0.7437    0.9009   -0.0120 C   0  0  1  0  0  0
   -0.5511    1.4159    0.9327 H   0  0  0  0  0  0
   -2.2446    0.5570   -0.1177 C   0  0  1  0  0  0
   -2.4977   -0.0333    0.7631 H   0  0  0  0  0  0
   -3.0499    1.8834   -0.1094 C   0  0  2  0  0  0
   -2.8839    2.3413    0.8683 H   0  0  0  0  0  0
   -4.5141    1.6745   -0.2272 N   0  3  0  0  0  0
   -5.1583    1.0234    0.9307 C   0  0  0  0  0  0
   -2.5201   -0.2433   -1.2524 O   0  0  0  0  0  0
   -0.0080   -0.2818    0.0016 O   0  0  0  0  0  0
    1.3796   -0.1068    0.2880 C   0  0  2  0  0  0
    1.6382    0.9465    0.4190 H   0  0  0  0  0  0
    2.2114   -0.6745   -0.8860 C   0  0  1  0  0  0
    3.2622   -0.4619   -0.6842 H   0  0  0  0  0  0
    2.0601   -2.2041   -1.0204 C   0  0  0  0  0  0
    2.4195   -2.9194    0.2993 C   0  0  1  0  0  0
    3.4524   -2.6530    0.5281 H   0  0  0  0  0  0
    1.5525   -2.4067    1.4688 C   0  0  1  0  0  0
    1.8893   -2.8836    2.3916 H   0  0  0  0  0  0
    1.7330   -0.8743    1.5801 C   0  0  2  0  0  0
    2.7953   -0.7017    1.7601 H   0  0  0  0  0  0
    1.1165   -0.3211    2.7242 O   0  0  0  0  0  0
    0.2052   -2.7458    1.1407 O   0  0  0  0  0  0
   -0.5437   -3.2869    2.1810 C   0  0  2  0  0  0
    0.0546   -4.0378    2.7020 H   0  0  0  0  0  0
   -1.7829   -3.9765    1.5673 C   0  0  1  0  0  0
   -1.4405   -4.7587    0.8884 H   0  0  0  0  0  0
   -2.6009   -4.6018    2.7096 C   0  0  0  0  0  0
   -2.7570   -3.6232    3.8512 C   0  0  0  0  0  0
   -1.9495   -2.5564    3.9904 C   0  0  0  0  0  0
   -0.9178   -2.3076    3.1156 O   0  0  0  0  0  0
   -2.0569   -1.5215    5.0912 C   0  0  0  0  0  0
   -0.8967   -1.6116    5.9940 N   0  3  0  0  0  0
   -2.5892   -3.0228    0.7825 N   0  3  0  0  0  0
    2.3724   -4.3849    0.1800 N   0  0  0  0  0  0
    1.8987    0.0096   -2.1540 N   0  3  0  0  0  0
   -3.0859    4.1548   -0.8569 O   0  0  0  0  0  0
   -2.4575    1.6545   -2.9850 H   0  0  0  0  0  0
   -2.5831    3.3686   -3.2997 H   0  0  0  0  0  0
   -3.9947    2.4831   -2.7564 H   0  0  0  0  0  0
   -0.5872    3.6495   -1.8098 H   0  0  0  0  0  0
   -0.7391    3.5136   -0.0740 H   0  0  0  0  0  0
   -6.2378    0.9955    0.7819 H   0  0  0  0  0  0
   -4.9580    1.5758    1.8492 H   0  0  0  0  0  0
   -4.8109   -0.0020    1.0543 H   0  0  0  0  0  0
   -3.4458   -0.4306   -1.2817 H   0  0  0  0  0  0
    1.0420   -2.4563   -1.3210 H   0  0  0  0  0  0
    2.7112   -2.5644   -1.8181 H   0  0  0  0  0  0
    0.1857   -0.4669    2.6584 H   0  0  0  0  0  0
   -3.5836   -4.9132    2.3535 H   0  0  0  0  0  0
   -2.1044   -5.4943    3.0922 H   0  0  0  0  0  0
   -3.5439   -3.8178    4.5657 H   0  0  0  0  0  0
   -2.0974   -0.5246    4.6514 H   0  0  0  0  0  0
   -2.9737   -1.6677    5.6630 H   0  0  0  0  0  0
   -0.9815   -0.9195    6.7251 H   0  0  0  0  0  0
   -2.9227   -2.2868    1.3872 H   0  0  0  0  0  0
    2.9869   -4.7038   -0.5683 H   0  0  0  0  0  0
    0.9305   -0.1495   -2.3943 H   0  0  0  0  0  0
   -2.7362    4.7965   -1.4574 H   0  0  0  0  0  0
    2.6997   -4.8257    1.0389 H   0  0  0  0  0  0
   -4.9354    2.5876   -0.3309 H   0  0  0  0  0  0
   -0.0472   -1.4454    5.4733 H   0  0  0  0  0  0
    2.4913   -0.3509   -2.8885 H   0  0  0  0  0  0
   -3.3745   -3.5080    0.3720 H   0  0  0  0  0  0
    2.0591    1.0017   -2.0518 H   0  0  0  0  0  0
   -4.7070    1.1436   -1.0643 H   0  0  0  0  0  0
   -0.8611   -2.5319    6.4090 H   0  0  0  0  0  0
   -2.0161   -2.6289    0.0494 H   0  0  0  0  0  0
  1  2  1  0  0  0
  1 42  1  0  0  0
  1 43  1  0  0  0
  1 44  1  0  0  0
  2  9  1  0  0  0
  2  3  1  0  0  0
  2 41  1  0  0  0
  3  4  1  0  0  0
  3 45  1  0  0  0
  3 46  1  0  0  0
  4  5  1  0  0  0
  5  6  1  0  0  0
  5  7  1  0  0  0
  5 14  1  0  0  0
  7  8  1  0  0  0
  7  9  1  0  0  0
  7 13  1  0  0  0
  9 10  1  0  0  0
  9 11  1  0  0  0
 11 12  1  0  0  0
 11 65  1  0  0  0
 11 70  1  0  0  0
 12 47  1  0  0  0
 12 48  1  0  0  0
 12 49  1  0  0  0
 13 50  1  0  0  0
 14 15  1  0  0  0
 15 16  1  0  0  0
 15 24  1  0  0  0
 15 17  1  0  0  0
 17 18  1  0  0  0
 17 19  1  0  0  0
 17 40  1  0  0  0
 19 20  1  0  0  0
 19 51  1  0  0  0
 19 52  1  0  0  0
 20 21  1  0  0  0
 20 22  1  0  0  0
 20 39  1  0  0  0
 22 23  1  0  0  0
 22 24  1  0  0  0
 22 27  1  0  0  0
 24 25  1  0  0  0
 24 26  1  0  0  0
 26 53  1  0  0  0
 27 28  1  0  0  0
 28 29  1  0  0  0
 28 35  1  0  0  0
 28 30  1  0  0  0
 30 31  1  0  0  0
 30 32  1  0  0  0
 30 38  1  0  0  0
 32 33  1  0  0  0
 32 54  1  0  0  0
 32 55  1  0  0  0
 33 34  2  0  0  0
 33 56  1  0  0  0
 34 35  1  0  0  0
 34 36  1  0  0  0
 36 37  1  0  0  0
 36 57  1  0  0  0
 36 58  1  0  0  0
 37 59  1  0  0  0
 37 66  1  0  0  0
 37 71  1  0  0  0
 38 60  1  0  0  0
 38 68  1  0  0  0
 38 72  1  0  0  0
 39 61  1  0  0  0
 39 64  1  0  0  0
 40 62  1  0  0  0
 40 67  1  0  0  0
 40 69  1  0  0  0
 41 63  1  0  0  0
M  CHG  4  11   1  37   1  38   1  40   1
M  END
> <s_m_entry_id>
95

> <s_m_entry_name>
biosynth_p1.0.sdf.88

> <s_m_Source_Path>
/Users/Sebastito/Downloads

> <s_m_Source_File>
biosynth_p1.0.sdf.gz

> <i_m_Source_File_Index>
88

> <chiral flag>
1

> <version>
0

> <i_m_ct_enhanced_stereo_status>
0

> <s_m_source_file>
ligprep_vs.maegz

> <i_m_source_file_index>
88

> <i_lp_mmshare_version>
37011

> <r_epik_Ionization_Penalty>
1.85001

> <r_epik_Ionization_Penalty_Charging>
0.58264

> <r_epik_Ionization_Penalty_Neutral>
1.26737

> <r_epik_State_Penalty>
1.93692

> <r_epik_Charging_Adjusted_Penalty>
2.51956

> <i_epik_Tot_Q>
4

> <i_epik_Tot_abs_Q>
4

> <s_epik_Chemistry_Notes>
This compound contains an acetal/aminal-like group ( X-CH(R)-Y where X, Y are N, S, or O) that may be acid/base labile, releasing an aldehyde.

> <i_f3d_flags>
0

> <s_lp_Force_Field>
OPLS_2005

> <r_lp_Energy>
74.0784

> <b_lp_Chiralities_Consistent>
1

> <s_lp_Variant>
ZINC60184549-5

$$$$
ZINC60184549
                    3D
 Structure written by MMmdl.
 72 74  0  0  1  0            999 V2000
   -2.8964    2.5842   -2.1430 C   0  0  0  0  0  0
   -2.5188    2.7510   -0.6553 C   0  0  2  0  0  0
   -0.9941    2.9101   -0.4870 C   0  0  0  0  0  0
   -0.3472    1.6564   -0.6748 O   0  0  0  0  0  0
   -0.6763    0.6976    0.2856 C   0  0  1  0  0  0
   -0.4913    1.1155    1.2781 H   0  0  0  0  0  0
   -2.1668    0.3249    0.1392 C   0  0  1  0  0  0
   -2.4054   -0.3626    0.9493 H   0  0  0  0  0  0
   -3.0098    1.6182    0.2857 C   0  0  2  0  0  0
   -2.8600    1.9724    1.3079 H   0  0  0  0  0  0
   -4.4658    1.3762    0.1378 N   0  3  0  0  0  0
   -5.0898    0.5828    1.2154 C   0  0  0  0  0  0
   -2.4205   -0.3598   -1.0736 O   0  0  0  0  0  0
    0.0894   -0.4612    0.1815 O   0  0  0  0  0  0
    1.4874   -0.2679    0.3970 C   0  0  2  0  0  0
    1.7315    0.7721    0.6251 H   0  0  0  0  0  0
    2.2518   -0.6985   -0.8770 C   0  0  1  0  0  0
    3.3118   -0.5485   -0.6680 H   0  0  0  0  0  0
    2.0804   -2.2039   -1.1689 C   0  0  0  0  0  0
    2.5079   -3.0633    0.0422 C   0  0  1  0  0  0
    3.5679   -2.8818    0.2268 H   0  0  0  0  0  0
    1.7203   -2.6784    1.3163 C   0  0  1  0  0  0
    2.1054   -3.2624    2.1541 H   0  0  0  0  0  0
    1.9457   -1.1637    1.5671 C   0  0  2  0  0  0
    3.0253   -1.0281    1.6491 H   0  0  0  0  0  0
    1.4963   -0.7049    2.8241 O   0  0  0  0  0  0
    0.3590   -3.0230    1.0426 O   0  0  0  0  0  0
   -0.4895   -3.1769    2.1379 C   0  0  2  0  0  0
    0.0463   -3.6939    2.9368 H   0  0  0  0  0  0
   -1.6892   -4.0399    1.6831 C   0  0  1  0  0  0
   -1.3107   -5.0006    1.3319 H   0  0  0  0  0  0
   -2.6126   -4.2582    2.8939 C   0  0  0  0  0  0
   -2.8420   -2.9585    3.6313 C   0  0  0  0  0  0
   -2.0290   -1.8987    3.4742 C   0  0  0  0  0  0
   -0.9327   -1.9437    2.6448 O   0  0  0  0  0  0
   -2.2112   -0.5540    4.1489 C   0  0  0  0  0  0
   -1.2413   -0.3936    5.2457 N   0  3  0  0  0  0
   -2.4076   -3.4012    0.5624 N   0  3  0  0  0  0
    2.3947   -4.5036   -0.2546 N   0  3  0  0  0  0
    1.9303    0.1449   -2.0374 N   0  0  0  0  0  0
   -3.1110    3.9565   -0.2100 O   0  0  0  0  0  0
   -2.4128    1.7193   -2.5949 H   0  0  0  0  0  0
   -2.5835    3.4534   -2.7232 H   0  0  0  0  0  0
   -3.9721    2.4775   -2.2840 H   0  0  0  0  0  0
   -0.5984    3.6247   -1.2099 H   0  0  0  0  0  0
   -0.7436    3.3004    0.5014 H   0  0  0  0  0  0
   -6.1673    0.5337    1.0589 H   0  0  0  0  0  0
   -4.9103    1.0395    2.1891 H   0  0  0  0  0  0
   -4.7076   -0.4377    1.2314 H   0  0  0  0  0  0
   -3.3455   -0.5397   -1.1412 H   0  0  0  0  0  0
    1.0443   -2.4159   -1.4380 H   0  0  0  0  0  0
    2.6822   -2.4747   -2.0377 H   0  0  0  0  0  0
    0.5540   -0.7662    2.8372 H   0  0  0  0  0  0
   -3.5693   -4.6757    2.5776 H   0  0  0  0  0  0
   -2.1703   -4.9716    3.5903 H   0  0  0  0  0  0
   -3.6871   -2.9123    4.3032 H   0  0  0  0  0  0
   -2.0682    0.2444    3.4202 H   0  0  0  0  0  0
   -3.2240   -0.4613    4.5424 H   0  0  0  0  0  0
   -1.3724    0.5067    5.6849 H   0  0  0  0  0  0
   -2.7706   -2.5075    0.8589 H   0  0  0  0  0  0
    1.4313   -4.7376   -0.4457 H   0  0  0  0  0  0
    2.4327   -0.1741   -2.8649 H   0  0  0  0  0  0
   -2.7760    4.6692   -0.7342 H   0  0  0  0  0  0
    2.7231   -5.0411    0.5352 H   0  0  0  0  0  0
   -4.9171    2.2807    0.1269 H   0  0  0  0  0  0
   -0.3001   -0.4532    4.8838 H   0  0  0  0  0  0
    0.9360    0.0949   -2.2554 H   0  0  0  0  0  0
   -3.1700   -3.9956    0.2685 H   0  0  0  0  0  0
    2.9585   -4.7240   -1.0636 H   0  0  0  0  0  0
   -4.6360    0.9306   -0.7524 H   0  0  0  0  0  0
   -1.3820   -1.1208    5.9328 H   0  0  0  0  0  0
   -1.7715   -3.2649   -0.2108 H   0  0  0  0  0  0
  1  2  1  0  0  0
  1 42  1  0  0  0
  1 43  1  0  0  0
  1 44  1  0  0  0
  2  9  1  0  0  0
  2  3  1  0  0  0
  2 41  1  0  0  0
  3  4  1  0  0  0
  3 45  1  0  0  0
  3 46  1  0  0  0
  4  5  1  0  0  0
  5  6  1  0  0  0
  5  7  1  0  0  0
  5 14  1  0  0  0
  7  8  1  0  0  0
  7  9  1  0  0  0
  7 13  1  0  0  0
  9 10  1  0  0  0
  9 11  1  0  0  0
 11 12  1  0  0  0
 11 65  1  0  0  0
 11 70  1  0  0  0
 12 47  1  0  0  0
 12 48  1  0  0  0
 12 49  1  0  0  0
 13 50  1  0  0  0
 14 15  1  0  0  0
 15 16  1  0  0  0
 15 24  1  0  0  0
 15 17  1  0  0  0
 17 18  1  0  0  0
 17 19  1  0  0  0
 17 40  1  0  0  0
 19 20  1  0  0  0
 19 51  1  0  0  0
 19 52  1  0  0  0
 20 21  1  0  0  0
 20 22  1  0  0  0
 20 39  1  0  0  0
 22 23  1  0  0  0
 22 24  1  0  0  0
 22 27  1  0  0  0
 24 25  1  0  0  0
 24 26  1  0  0  0
 26 53  1  0  0  0
 27 28  1  0  0  0
 28 29  1  0  0  0
 28 35  1  0  0  0
 28 30  1  0  0  0
 30 31  1  0  0  0
 30 32  1  0  0  0
 30 38  1  0  0  0
 32 33  1  0  0  0
 32 54  1  0  0  0
 32 55  1  0  0  0
 33 34  2  0  0  0
 33 56  1  0  0  0
 34 35  1  0  0  0
 34 36  1  0  0  0
 36 37  1  0  0  0
 36 57  1  0  0  0
 36 58  1  0  0  0
 37 59  1  0  0  0
 37 66  1  0  0  0
 37 71  1  0  0  0
 38 60  1  0  0  0
 38 68  1  0  0  0
 38 72  1  0  0  0
 39 61  1  0  0  0
 39 64  1  0  0  0
 39 69  1  0  0  0
 40 62  1  0  0  0
 40 67  1  0  0  0
 41 63  1  0  0  0
M  CHG  4  11   1  37   1  38   1  39   1
M  END
> <s_m_entry_id>
95

> <s_m_entry_name>
biosynth_p1.0.sdf.88

> <s_m_Source_Path>
/Users/Sebastito/Downloads

> <s_m_Source_File>
biosynth_p1.0.sdf.gz

> <i_m_Source_File_Index>
88

> <chiral flag>
1

> <version>
0

> <i_m_ct_enhanced_stereo_status>
0

> <s_m_source_file>
ligprep_vs.maegz

> <i_m_source_file_index>
88

> <i_lp_mmshare_version>
37011

> <r_epik_Ionization_Penalty>
1.95127

> <r_epik_Ionization_Penalty_Charging>
0.631188

> <r_epik_Ionization_Penalty_Neutral>
1.32008

> <r_epik_State_Penalty>
2.00464

> <r_epik_Charging_Adjusted_Penalty>
2.63583

> <i_epik_Tot_Q>
4

> <i_epik_Tot_abs_Q>
4

> <s_epik_Chemistry_Notes>
This compound contains an acetal/aminal-like group ( X-CH(R)-Y where X, Y are N, S, or O) that may be acid/base labile, releasing an aldehyde.

> <i_f3d_flags>
0

> <s_lp_Force_Field>
OPLS_2005

> <r_lp_Energy>
79.2157

> <b_lp_Chiralities_Consistent>
1

> <s_lp_Variant>
ZINC60184549-6

$$$$
ZINC60184549
                    3D
 Structure written by MMmdl.
 71 73  0  0  1  0            999 V2000
   -2.9890    2.8358   -2.3971 C   0  0  0  0  0  0
   -2.4070    3.1983   -1.0135 C   0  0  2  0  0  0
   -0.8656    3.2436   -1.0598 C   0  0  0  0  0  0
   -0.3340    1.9245   -1.1171 O   0  0  0  0  0  0
   -0.5994    1.1556    0.0185 C   0  0  1  0  0  0
   -0.2465    1.6955    0.9003 H   0  0  0  0  0  0
   -2.1163    0.9091    0.1250 C   0  0  1  0  0  0
   -2.2829    0.3853    1.0649 H   0  0  0  0  0  0
   -2.8462    2.2747    0.1549 C   0  0  2  0  0  0
   -2.5479    2.7715    1.0805 H   0  0  0  0  0  0
   -4.3203    2.1211    0.2079 N   0  3  0  0  0  0
   -4.8570    1.5879    1.4757 C   0  0  0  0  0  0
   -2.5873    0.0733   -0.9149 O   0  0  0  0  0  0
    0.0427   -0.0796    0.0030 O   0  0  0  0  0  0
    1.4662   -0.0123    0.0361 C   0  0  2  0  0  0
    1.8308    1.0172    0.0606 H   0  0  0  0  0  0
    2.0148   -0.7162   -1.2261 C   0  0  1  0  0  0
    3.1024   -0.6694   -1.1589 H   0  0  0  0  0  0
    1.6402   -2.2119   -1.2494 C   0  0  0  0  0  0
    2.1474   -2.9355    0.0155 C   0  0  1  0  0  0
    3.2366   -2.8756    0.0232 H   0  0  0  0  0  0
    1.6213   -2.2688    1.3069 C   0  0  1  0  0  0
    2.1061   -2.7359    2.1672 H   0  0  0  0  0  0
    1.9779   -0.7635    1.2851 C   0  0  2  0  0  0
    3.0670   -0.7074    1.2542 H   0  0  0  0  0  0
    1.6503   -0.1016    2.4901 O   0  0  0  0  0  0
    0.2054   -2.4397    1.3367 O   0  0  0  0  0  0
   -0.2718   -3.1157    2.4560 C   0  0  2  0  0  0
    0.2583   -4.0683    2.5241 H   0  0  0  0  0  0
   -1.7796   -3.3888    2.2604 C   0  0  1  0  0  0
   -1.8856   -3.9952    1.3601 H   0  0  0  0  0  0
   -2.2759   -4.2125    3.4608 C   0  0  0  0  0  0
   -1.7490   -3.6397    4.7571 C   0  0  0  0  0  0
   -0.7138   -2.7812    4.7904 C   0  0  0  0  0  0
   -0.0328   -2.4195    3.6516 O   0  0  0  0  0  0
   -0.1438   -2.1553    6.0450 C   0  0  0  0  0  0
   -0.4286   -0.7119    6.0676 N   0  3  0  0  0  0
   -2.5535   -2.1486    2.0792 N   0  0  0  0  0  0
    1.8187   -4.3724   -0.0236 N   0  3  0  0  0  0
    1.6381   -0.0217   -2.4662 N   0  0  0  0  0  0
   -2.8487    4.5099   -0.7154 O   0  0  0  0  0  0
   -2.6368    1.8678   -2.7501 H   0  0  0  0  0  0
   -2.6907    3.5683   -3.1483 H   0  0  0  0  0  0
   -4.0788    2.8124   -2.3903 H   0  0  0  0  0  0
   -0.5224    3.8013   -1.9319 H   0  0  0  0  0  0
   -0.4596    3.7566   -0.1859 H   0  0  0  0  0  0
   -5.9463    1.5780    1.4380 H   0  0  0  0  0  0
   -4.5528    2.2080    2.3194 H   0  0  0  0  0  0
   -4.5199    0.5666    1.6518 H   0  0  0  0  0  0
   -2.0166   -0.6781   -0.9761 H   0  0  0  0  0  0
    0.5588   -2.3246   -1.3412 H   0  0  0  0  0  0
    2.0719   -2.6811   -2.1346 H   0  0  0  0  0  0
    2.0205    0.7678    2.4621 H   0  0  0  0  0  0
   -3.3659   -4.2384    3.4860 H   0  0  0  0  0  0
   -1.9360   -5.2457    3.3824 H   0  0  0  0  0  0
   -2.2429   -3.9444    5.6685 H   0  0  0  0  0  0
   -0.5684   -2.6245    6.9332 H   0  0  0  0  0  0
    0.9348   -2.3122    6.0721 H   0  0  0  0  0  0
   -0.0281   -0.3030    6.8999 H   0  0  0  0  0  0
   -2.2205   -1.6444    1.2587 H   0  0  0  0  0  0
    0.8153   -4.4878   -0.0295 H   0  0  0  0  0  0
    1.9269    0.9552   -2.4336 H   0  0  0  0  0  0
   -2.4019    4.8133    0.0604 H   0  0  0  0  0  0
    2.2067   -4.8329    0.7872 H   0  0  0  0  0  0
   -4.7256    3.0350    0.0626 H   0  0  0  0  0  0
   -1.4280   -0.5660    6.0676 H   0  0  0  0  0  0
    2.0983   -0.4448   -3.2712 H   0  0  0  0  0  0
   -3.5359   -2.3664    1.9165 H   0  0  0  0  0  0
    2.2074   -4.7843   -0.8603 H   0  0  0  0  0  0
   -4.6065    1.5209   -0.5529 H   0  0  0  0  0  0
   -0.0244   -0.2781    5.2499 H   0  0  0  0  0  0
  1  2  1  0  0  0
  1 42  1  0  0  0
  1 43  1  0  0  0
  1 44  1  0  0  0
  2  9  1  0  0  0
  2  3  1  0  0  0
  2 41  1  0  0  0
  3  4  1  0  0  0
  3 45  1  0  0  0
  3 46  1  0  0  0
  4  5  1  0  0  0
  5  6  1  0  0  0
  5  7  1  0  0  0
  5 14  1  0  0  0
  7  8  1  0  0  0
  7  9  1  0  0  0
  7 13  1  0  0  0
  9 10  1  0  0  0
  9 11  1  0  0  0
 11 12  1  0  0  0
 11 65  1  0  0  0
 11 70  1  0  0  0
 12 47  1  0  0  0
 12 48  1  0  0  0
 12 49  1  0  0  0
 13 50  1  0  0  0
 14 15  1  0  0  0
 15 16  1  0  0  0
 15 24  1  0  0  0
 15 17  1  0  0  0
 17 18  1  0  0  0
 17 19  1  0  0  0
 17 40  1  0  0  0
 19 20  1  0  0  0
 19 51  1  0  0  0
 19 52  1  0  0  0
 20 21  1  0  0  0
 20 22  1  0  0  0
 20 39  1  0  0  0
 22 23  1  0  0  0
 22 24  1  0  0  0
 22 27  1  0  0  0
 24 25  1  0  0  0
 24 26  1  0  0  0
 26 53  1  0  0  0
 27 28  1  0  0  0
 28 29  1  0  0  0
 28 35  1  0  0  0
 28 30  1  0  0  0
 30 31  1  0  0  0
 30 32  1  0  0  0
 30 38  1  0  0  0
 32 33  1  0  0  0
 32 54  1  0  0  0
 32 55  1  0  0  0
 33 34  2  0  0  0
 33 56  1  0  0  0
 34 35  1  0  0  0
 34 36  1  0  0  0
 36 37  1  0  0  0
 36 57  1  0  0  0
 36 58  1  0  0  0
 37 59  1  0  0  0
 37 66  1  0  0  0
 37 71  1  0  0  0
 38 60  1  0  0  0
 38 68  1  0  0  0
 39 61  1  0  0  0
 39 64  1  0  0  0
 39 69  1  0  0  0
 40 62  1  0  0  0
 40 67  1  0  0  0
 41 63  1  0  0  0
M  CHG  3  11   1  37   1  39   1
M  END
> <s_m_entry_id>
95

> <s_m_entry_name>
biosynth_p1.0.sdf.88

> <s_m_Source_Path>
/Users/Sebastito/Downloads

> <s_m_Source_File>
biosynth_p1.0.sdf.gz

> <i_m_Source_File_Index>
88

> <chiral flag>
1

> <version>
0

> <i_m_ct_enhanced_stereo_status>
0

> <s_m_source_file>
ligprep_vs.maegz

> <i_m_source_file_index>
88

> <i_lp_mmshare_version>
37011

> <r_epik_Ionization_Penalty>
1.98152

> <r_epik_Ionization_Penalty_Charging>
0.157133

> <r_epik_Ionization_Penalty_Neutral>
1.82439

> <r_epik_State_Penalty>
2.16151

> <r_epik_Charging_Adjusted_Penalty>
2.31864

> <i_epik_Tot_Q>
3

> <i_epik_Tot_abs_Q>
3

> <s_epik_Chemistry_Notes>
This compound contains an acetal/aminal-like group ( X-CH(R)-Y where X, Y are N, S, or O) that may be acid/base labile, releasing an aldehyde.

> <i_f3d_flags>
0

> <s_lp_Force_Field>
OPLS_2005

> <r_lp_Energy>
66.4054

> <b_lp_Chiralities_Consistent>
1

> <s_lp_Variant>
ZINC60184549-7

$$$$
ZINC60184549
                    3D
 Structure written by MMmdl.
 71 73  0  0  1  0            999 V2000
   -3.1446    2.8437   -2.4446 C   0  0  0  0  0  0
   -2.4468    3.2463   -1.1274 C   0  0  2  0  0  0
   -0.9138    3.2730   -1.3021 C   0  0  0  0  0  0
   -0.3980    1.9470   -1.3581 O   0  0  0  0  0  0
   -0.5792    1.2205   -0.1786 C   0  0  1  0  0  0
   -0.1549    1.7864    0.6545 H   0  0  0  0  0  0
   -2.0844    0.9932    0.0602 C   0  0  1  0  0  0
   -2.1789    0.5025    1.0280 H   0  0  0  0  0  0
   -2.7957    2.3683    0.1046 C   0  0  2  0  0  0
   -2.4145    2.8921    0.9837 H   0  0  0  0  0  0
   -4.2614    2.2351    0.2884 N   0  3  0  0  0  0
   -4.6928    1.7830    1.6261 C   0  0  0  0  0  0
   -2.6474    0.1292   -0.9087 O   0  0  0  0  0  0
    0.0510   -0.0187   -0.2152 O   0  0  0  0  0  0
    1.4749    0.0396   -0.1901 C   0  0  2  0  0  0
    1.8416    1.0579   -0.3387 H   0  0  0  0  0  0
    1.9995   -0.8426   -1.3446 C   0  0  1  0  0  0
    3.0843   -0.7356   -1.3848 H   0  0  0  0  0  0
    1.6788   -2.3360   -1.1216 C   0  0  0  0  0  0
    2.2284   -2.8266    0.2335 C   0  0  1  0  0  0
    3.3032   -2.6417    0.2148 H   0  0  0  0  0  0
    1.6605   -1.9934    1.4072 C   0  0  1  0  0  0
    2.1225   -2.3070    2.3462 H   0  0  0  0  0  0
    2.0016   -0.5076    1.1569 C   0  0  2  0  0  0
    3.0897   -0.4399    1.1140 H   0  0  0  0  0  0
    1.6622    0.3173    2.2527 O   0  0  0  0  0  0
    0.2417   -2.1369    1.4371 O   0  0  0  0  0  0
   -0.2400   -2.9622    2.4498 C   0  0  2  0  0  0
    0.3112   -3.9038    2.4225 H   0  0  0  0  0  0
   -1.7347   -3.2455    2.1822 C   0  0  1  0  0  0
   -1.8031   -3.7323    1.2086 H   0  0  0  0  0  0
   -2.2314   -4.2307    3.2537 C   0  0  0  0  0  0
   -1.7513   -3.8131    4.6253 C   0  0  0  0  0  0
   -0.7480   -2.9326    4.7934 C   0  0  0  0  0  0
   -0.0508   -2.4117    3.7279 O   0  0  0  0  0  0
   -0.2268   -2.4572    6.1318 C   0  0  0  0  0  0
   -0.7035   -1.0916    6.4016 N   0  3  0  0  0  0
   -2.5403   -2.0120    2.1451 N   0  0  0  0  0  0
    2.0577   -4.2747    0.4237 N   0  0  0  0  0  0
    1.4937   -0.3732   -2.6477 N   0  3  0  0  0  0
   -2.8511    4.5722   -0.8410 O   0  0  0  0  0  0
   -2.8273    1.8631   -2.7959 H   0  0  0  0  0  0
   -2.9085    3.5513   -3.2404 H   0  0  0  0  0  0
   -4.2302    2.8279   -2.3451 H   0  0  0  0  0  0
   -0.6391    3.7979   -2.2177 H   0  0  0  0  0  0
   -0.4331    3.8107   -0.4825 H   0  0  0  0  0  0
   -5.7815    1.7777    1.6788 H   0  0  0  0  0  0
   -4.3200    2.4523    2.4019 H   0  0  0  0  0  0
   -4.3426    0.7727    1.8368 H   0  0  0  0  0  0
   -2.1627   -0.6825   -0.9057 H   0  0  0  0  0  0
    0.6018   -2.5041   -1.1712 H   0  0  0  0  0  0
    2.1178   -2.9254   -1.9278 H   0  0  0  0  0  0
    2.1118   -0.0051    3.0190 H   0  0  0  0  0  0
   -3.3203   -4.2902    3.2468 H   0  0  0  0  0  0
   -1.8569   -5.2350    3.0528 H   0  0  0  0  0  0
   -2.2542   -4.2462    5.4775 H   0  0  0  0  0  0
   -0.5577   -3.1249    6.9280 H   0  0  0  0  0  0
    0.8637   -2.4673    6.1245 H   0  0  0  0  0  0
   -0.3404   -0.7756    7.2894 H   0  0  0  0  0  0
   -2.2022   -1.3966    1.4072 H   0  0  0  0  0  0
    2.4979   -4.7918   -0.3367 H   0  0  0  0  0  0
    0.4861   -0.4422   -2.6614 H   0  0  0  0  0  0
   -2.3411    4.8985   -0.1148 H   0  0  0  0  0  0
    2.5046   -4.5781    1.2880 H   0  0  0  0  0  0
   -4.6718    3.1441    0.1260 H   0  0  0  0  0  0
   -1.7130   -1.0889    6.4301 H   0  0  0  0  0  0
    1.8802   -0.9428   -3.3870 H   0  0  0  0  0  0
   -3.5116   -2.2329    1.9296 H   0  0  0  0  0  0
    1.7645    0.5896   -2.7888 H   0  0  0  0  0  0
   -4.6154    1.5961   -0.4095 H   0  0  0  0  0  0
   -0.3855   -0.4746    5.6680 H   0  0  0  0  0  0
  1  2  1  0  0  0
  1 42  1  0  0  0
  1 43  1  0  0  0
  1 44  1  0  0  0
  2  9  1  0  0  0
  2  3  1  0  0  0
  2 41  1  0  0  0
  3  4  1  0  0  0
  3 45  1  0  0  0
  3 46  1  0  0  0
  4  5  1  0  0  0
  5  6  1  0  0  0
  5  7  1  0  0  0
  5 14  1  0  0  0
  7  8  1  0  0  0
  7  9  1  0  0  0
  7 13  1  0  0  0
  9 10  1  0  0  0
  9 11  1  0  0  0
 11 12  1  0  0  0
 11 65  1  0  0  0
 11 70  1  0  0  0
 12 47  1  0  0  0
 12 48  1  0  0  0
 12 49  1  0  0  0
 13 50  1  0  0  0
 14 15  1  0  0  0
 15 16  1  0  0  0
 15 24  1  0  0  0
 15 17  1  0  0  0
 17 18  1  0  0  0
 17 19  1  0  0  0
 17 40  1  0  0  0
 19 20  1  0  0  0
 19 51  1  0  0  0
 19 52  1  0  0  0
 20 21  1  0  0  0
 20 22  1  0  0  0
 20 39  1  0  0  0
 22 23  1  0  0  0
 22 24  1  0  0  0
 22 27  1  0  0  0
 24 25  1  0  0  0
 24 26  1  0  0  0
 26 53  1  0  0  0
 27 28  1  0  0  0
 28 29  1  0  0  0
 28 35  1  0  0  0
 28 30  1  0  0  0
 30 31  1  0  0  0
 30 32  1  0  0  0
 30 38  1  0  0  0
 32 33  1  0  0  0
 32 54  1  0  0  0
 32 55  1  0  0  0
 33 34  2  0  0  0
 33 56  1  0  0  0
 34 35  1  0  0  0
 34 36  1  0  0  0
 36 37  1  0  0  0
 36 57  1  0  0  0
 36 58  1  0  0  0
 37 59  1  0  0  0
 37 66  1  0  0  0
 37 71  1  0  0  0
 38 60  1  0  0  0
 38 68  1  0  0  0
 39 61  1  0  0  0
 39 64  1  0  0  0
 40 62  1  0  0  0
 40 67  1  0  0  0
 40 69  1  0  0  0
 41 63  1  0  0  0
M  CHG  3  11   1  37   1  40   1
M  END
> <s_m_entry_id>
95

> <s_m_entry_name>
biosynth_p1.0.sdf.88

> <s_m_Source_Path>
/Users/Sebastito/Downloads

> <s_m_Source_File>
biosynth_p1.0.sdf.gz

> <i_m_Source_File_Index>
88

> <chiral flag>
1

> <version>
0

> <i_m_ct_enhanced_stereo_status>
0

> <s_m_source_file>
ligprep_vs.maegz

> <i_m_source_file_index>
88

> <i_lp_mmshare_version>
37011

> <r_epik_Ionization_Penalty>
2.05908

> <r_epik_Ionization_Penalty_Charging>
0.155437

> <r_epik_Ionization_Penalty_Neutral>
1.90364

> <r_epik_State_Penalty>
2.19182

> <r_epik_Charging_Adjusted_Penalty>
2.34726

> <i_epik_Tot_Q>
3

> <i_epik_Tot_abs_Q>
3

> <s_epik_Chemistry_Notes>
This compound contains an acetal/aminal-like group ( X-CH(R)-Y where X, Y are N, S, or O) that may be acid/base labile, releasing an aldehyde.

> <i_f3d_flags>
0

> <s_lp_Force_Field>
OPLS_2005

> <r_lp_Energy>
62.2656

> <b_lp_Chiralities_Consistent>
1

> <s_lp_Variant>
ZINC60184549-8

$$$$
ZINC60184549
                    3D
 Structure written by MMmdl.
 72 74  0  0  1  0            999 V2000
   -2.9863    2.9387   -1.5051 C   0  0  0  0  0  0
   -2.2136    2.9921   -0.1696 C   0  0  2  0  0  0
   -0.6863    3.0113   -0.4063 C   0  0  0  0  0  0
   -0.2031    1.7154   -0.7460 O   0  0  0  0  0  0
   -0.3772    0.7692    0.2662 C   0  0  1  0  0  0
    0.0663    1.1487    1.1899 H   0  0  0  0  0  0
   -1.8823    0.5227    0.4713 C   0  0  1  0  0  0
   -1.9829   -0.1792    1.2958 H   0  0  0  0  0  0
   -2.5523    1.8674    0.8470 C   0  0  2  0  0  0
   -2.1082    2.1730    1.7961 H   0  0  0  0  0  0
   -4.0000    1.7244    1.0584 N   0  0  0  0  0  0
   -4.3878    0.8897    2.1926 C   0  0  0  0  0  0
   -2.4705   -0.0735   -0.6688 O   0  0  0  0  0  0
    0.2326   -0.4464   -0.0267 O   0  0  0  0  0  0
    1.6563   -0.4035   -0.0487 C   0  0  2  0  0  0
    2.0362    0.6199   -0.0029 H   0  0  0  0  0  0
    2.1311   -1.0454   -1.3717 C   0  0  1  0  0  0
    3.2161   -0.9435   -1.4242 H   0  0  0  0  0  0
    1.7945   -2.5521   -1.4410 C   0  0  0  0  0  0
    2.3381   -3.3158   -0.2113 C   0  0  1  0  0  0
    3.4258   -3.2285   -0.2133 H   0  0  0  0  0  0
    1.8043   -2.7148    1.1103 C   0  0  1  0  0  0
    2.2618   -3.2480    1.9456 H   0  0  0  0  0  0
    2.2124   -1.2186    1.1381 C   0  0  2  0  0  0
    3.2986   -1.1988    1.0362 H   0  0  0  0  0  0
    2.0245   -0.5838    2.3846 O   0  0  0  0  0  0
    0.3887   -2.9235    1.0837 O   0  0  0  0  0  0
   -0.2738   -2.9414    2.3113 C   0  0  2  0  0  0
    0.3247   -3.5031    3.0315 H   0  0  0  0  0  0
   -1.6297   -3.6598    2.1055 C   0  0  1  0  0  0
   -1.4332   -4.6702    1.7449 H   0  0  0  0  0  0
   -2.3496   -3.7259    3.4625 C   0  0  0  0  0  0
   -2.3089   -2.3799    4.1478 C   0  0  0  0  0  0
   -1.4099   -1.4379    3.8117 C   0  0  0  0  0  0
   -0.4677   -1.6504    2.8312 O   0  0  0  0  0  0
   -1.3428   -0.0493    4.4141 C   0  0  0  0  0  0
   -0.2989    0.0123    5.4510 N   0  3  0  0  0  0
   -2.4548   -2.9723    1.0914 N   0  3  0  0  0  0
    2.0550   -4.7611   -0.3033 N   0  3  0  0  0  0
    1.5973   -0.3168   -2.5386 N   0  3  0  0  0  0
   -2.5281    4.2230    0.4531 O   0  0  0  0  0  0
   -2.7346    2.0549   -2.0892 H   0  0  0  0  0  0
   -2.7488    3.8026   -2.1269 H   0  0  0  0  0  0
   -4.0660    2.9423   -1.3541 H   0  0  0  0  0  0
   -0.4295    3.7053   -1.2075 H   0  0  0  0  0  0
   -0.1572    3.3607    0.4827 H   0  0  0  0  0  0
   -5.4719    0.8847    2.3065 H   0  0  0  0  0  0
   -3.9601    1.2672    3.1216 H   0  0  0  0  0  0
   -4.0709   -0.1445    2.0626 H   0  0  0  0  0  0
   -3.4106   -0.0053   -0.5871 H   0  0  0  0  0  0
    0.7145   -2.6877   -1.5168 H   0  0  0  0  0  0
    2.2187   -2.9767   -2.3522 H   0  0  0  0  0  0
    1.0969   -0.5403    2.5587 H   0  0  0  0  0  0
   -3.3857   -4.0407    3.3326 H   0  0  0  0  0  0
   -1.8746   -4.4575    4.1171 H   0  0  0  0  0  0
   -3.0336   -2.1986    4.9286 H   0  0  0  0  0  0
   -1.1211    0.6793    3.6340 H   0  0  0  0  0  0
   -2.3056    0.2199    4.8501 H   0  0  0  0  0  0
   -0.2654    0.9442    5.8401 H   0  0  0  0  0  0
   -2.6611   -2.0331    1.3998 H   0  0  0  0  0  0
    1.0570   -4.9156   -0.3086 H   0  0  0  0  0  0
    0.5882   -0.3664   -2.5393 H   0  0  0  0  0  0
   -2.3163    4.9261   -0.1424 H   0  0  0  0  0  0
    2.4651   -5.2390    0.4868 H   0  0  0  0  0  0
   -4.4074    2.6491    1.1654 H   0  0  0  0  0  0
    0.5994   -0.2139    5.0486 H   0  0  0  0  0  0
    1.9544   -0.7262   -3.3904 H   0  0  0  0  0  0
   -3.3196   -3.4782    0.9604 H   0  0  0  0  0  0
    2.4547   -5.1302   -1.1548 H   0  0  0  0  0  0
    1.8806    0.6519   -2.4911 H   0  0  0  0  0  0
   -0.5128   -0.6462    6.1865 H   0  0  0  0  0  0
   -1.9544   -2.9339    0.2151 H   0  0  0  0  0  0
  1  2  1  0  0  0
  1 42  1  0  0  0
  1 43  1  0  0  0
  1 44  1  0  0  0
  2  9  1  0  0  0
  2  3  1  0  0  0
  2 41  1  0  0  0
  3  4  1  0  0  0
  3 45  1  0  0  0
  3 46  1  0  0  0
  4  5  1  0  0  0
  5  6  1  0  0  0
  5  7  1  0  0  0
  5 14  1  0  0  0
  7  8  1  0  0  0
  7  9  1  0  0  0
  7 13  1  0  0  0
  9 10  1  0  0  0
  9 11  1  0  0  0
 11 12  1  0  0  0
 11 65  1  0  0  0
 12 47  1  0  0  0
 12 48  1  0  0  0
 12 49  1  0  0  0
 13 50  1  0  0  0
 14 15  1  0  0  0
 15 16  1  0  0  0
 15 24  1  0  0  0
 15 17  1  0  0  0
 17 18  1  0  0  0
 17 19  1  0  0  0
 17 40  1  0  0  0
 19 20  1  0  0  0
 19 51  1  0  0  0
 19 52  1  0  0  0
 20 21  1  0  0  0
 20 22  1  0  0  0
 20 39  1  0  0  0
 22 23  1  0  0  0
 22 24  1  0  0  0
 22 27  1  0  0  0
 24 25  1  0  0  0
 24 26  1  0  0  0
 26 53  1  0  0  0
 27 28  1  0  0  0
 28 29  1  0  0  0
 28 35  1  0  0  0
 28 30  1  0  0  0
 30 31  1  0  0  0
 30 32  1  0  0  0
 30 38  1  0  0  0
 32 33  1  0  0  0
 32 54  1  0  0  0
 32 55  1  0  0  0
 33 34  2  0  0  0
 33 56  1  0  0  0
 34 35  1  0  0  0
 34 36  1  0  0  0
 36 37  1  0  0  0
 36 57  1  0  0  0
 36 58  1  0  0  0
 37 59  1  0  0  0
 37 66  1  0  0  0
 37 71  1  0  0  0
 38 60  1  0  0  0
 38 68  1  0  0  0
 38 72  1  0  0  0
 39 61  1  0  0  0
 39 64  1  0  0  0
 39 69  1  0  0  0
 40 62  1  0  0  0
 40 67  1  0  0  0
 40 70  1  0  0  0
 41 63  1  0  0  0
M  CHG  4  37   1  38   1  39   1  40   1
M  END
> <s_m_entry_id>
95

> <s_m_entry_name>
biosynth_p1.0.sdf.88

> <s_m_Source_Path>
/Users/Sebastito/Downloads

> <s_m_Source_File>
biosynth_p1.0.sdf.gz

> <i_m_Source_File_Index>
88

> <chiral flag>
1

> <version>
0

> <i_m_ct_enhanced_stereo_status>
0

> <s_m_source_file>
ligprep_vs.maegz

> <i_m_source_file_index>
88

> <i_lp_mmshare_version>
37011

> <r_epik_Ionization_Penalty>
2.31594

> <r_epik_Ionization_Penalty_Charging>
0.747414

> <r_epik_Ionization_Penalty_Neutral>
1.56853

> <r_epik_State_Penalty>
2.30076

> <r_epik_Charging_Adjusted_Penalty>
3.04818

> <i_epik_Tot_Q>
4

> <i_epik_Tot_abs_Q>
4

> <s_epik_Chemistry_Notes>
This compound contains an acetal/aminal-like group ( X-CH(R)-Y where X, Y are N, S, or O) that may be acid/base labile, releasing an aldehyde.

> <i_f3d_flags>
0

> <s_lp_Force_Field>
OPLS_2005

> <r_lp_Energy>
87.6992

> <b_lp_Chiralities_Consistent>
1

> <s_lp_Variant>
ZINC60184549-9

$$$$
ZINC60184549
                    3D
 Structure written by MMmdl.
 71 73  0  0  1  0            999 V2000
   -2.7985    3.1529   -1.3663 C   0  0  0  0  0  0
   -2.1052    3.0047    0.0044 C   0  0  2  0  0  0
   -0.5651    2.9998   -0.1464 C   0  0  0  0  0  0
   -0.0837    1.7396   -0.5966 O   0  0  0  0  0  0
   -0.3370    0.6991    0.2981 C   0  0  1  0  0  0
    0.0480    0.9659    1.2847 H   0  0  0  0  0  0
   -1.8553    0.4663    0.3584 C   0  0  1  0  0  0
   -2.0411   -0.3247    1.0834 H   0  0  0  0  0  0
   -2.5466    1.7638    0.8428 C   0  0  2  0  0  0
   -2.1907    1.9272    1.8609 H   0  0  0  0  0  0
   -4.0004    1.5289    0.9048 N   0  0  0  0  0  0
   -4.7929    2.5463    1.5899 C   0  0  0  0  0  0
   -2.3517    0.0255   -0.8925 O   0  0  0  0  0  0
    0.2708   -0.4923   -0.0813 O   0  0  0  0  0  0
    1.6939   -0.4594   -0.1034 C   0  0  2  0  0  0
    2.0820    0.5608   -0.0658 H   0  0  0  0  0  0
    2.1379   -1.1065   -1.4339 C   0  0  1  0  0  0
    3.2226   -1.0172   -1.5100 H   0  0  0  0  0  0
    1.7784   -2.6082   -1.4951 C   0  0  0  0  0  0
    2.3283   -3.3832   -0.2750 C   0  0  1  0  0  0
    3.4175   -3.3271   -0.2995 H   0  0  0  0  0  0
    1.8368   -2.7687    1.0562 C   0  0  1  0  0  0
    2.3030   -3.3077    1.8830 H   0  0  0  0  0  0
    2.2660   -1.2789    1.0729 C   0  0  2  0  0  0
    3.3487   -1.2803    0.9379 H   0  0  0  0  0  0
    2.1384   -0.6376    2.3255 O   0  0  0  0  0  0
    0.4214   -2.9617    1.0536 O   0  0  0  0  0  0
   -0.2246   -2.9366    2.2878 C   0  0  2  0  0  0
    0.3853   -3.4760    3.0153 H   0  0  0  0  0  0
   -1.5786   -3.6665    2.1280 C   0  0  1  0  0  0
   -1.3607   -4.6905    1.8227 H   0  0  0  0  0  0
   -2.2689   -3.7084    3.5015 C   0  0  0  0  0  0
   -2.1948   -2.3581    4.1762 C   0  0  0  0  0  0
   -1.3176   -1.4151    3.7896 C   0  0  0  0  0  0
   -0.4104   -1.6365    2.7802 O   0  0  0  0  0  0
   -1.2165   -0.0270    4.3834 C   0  0  0  0  0  0
    0.0018    0.0870    5.2010 N   0  3  0  0  0  0
   -2.4308   -3.0474    1.0970 N   0  0  0  0  0  0
    1.9945   -4.8181   -0.3572 N   0  3  0  0  0  0
    1.5821   -0.3736   -2.5875 N   0  3  0  0  0  0
   -2.3702    4.1756    0.7526 O   0  0  0  0  0  0
   -2.5558    2.3302   -2.0369 H   0  0  0  0  0  0
   -2.4841    4.0698   -1.8658 H   0  0  0  0  0  0
   -3.8836    3.1951   -1.2726 H   0  0  0  0  0  0
   -0.2452    3.7696   -0.8495 H   0  0  0  0  0  0
   -0.0787    3.2352    0.8027 H   0  0  0  0  0  0
   -5.8309    2.2243    1.6751 H   0  0  0  0  0  0
   -4.7957    3.4901    1.0464 H   0  0  0  0  0  0
   -4.4175    2.7268    2.5974 H   0  0  0  0  0  0
   -3.2923   -0.0490   -0.8290 H   0  0  0  0  0  0
    0.6947   -2.7258   -1.5514 H   0  0  0  0  0  0
    2.1776   -3.0408   -2.4135 H   0  0  0  0  0  0
    2.5902    0.1921    2.2846 H   0  0  0  0  0  0
   -3.3119   -4.0106    3.3985 H   0  0  0  0  0  0
   -1.7886   -4.4416    4.1504 H   0  0  0  0  0  0
   -2.8849   -2.1721    4.9864 H   0  0  0  0  0  0
   -1.1834    0.7109    3.5823 H   0  0  0  0  0  0
   -2.0914    0.1910    4.9967 H   0  0  0  0  0  0
    0.0691    1.0211    5.5796 H   0  0  0  0  0  0
   -1.9607   -3.0499    0.1929 H   0  0  0  0  0  0
    0.9910   -4.9327   -0.3322 H   0  0  0  0  0  0
    0.5727   -0.4137   -2.5571 H   0  0  0  0  0  0
   -3.3055    4.2505    0.8666 H   0  0  0  0  0  0
    2.4067   -5.3092    0.4236 H   0  0  0  0  0  0
   -4.1692    0.6283    1.3419 H   0  0  0  0  0  0
    0.8114   -0.1041    4.6279 H   0  0  0  0  0  0
    1.9092   -0.7895   -3.4478 H   0  0  0  0  0  0
   -3.2972   -3.5730    0.9860 H   0  0  0  0  0  0
    2.3540   -5.2022   -1.2197 H   0  0  0  0  0  0
    1.8752    0.5926   -2.5498 H   0  0  0  0  0  0
   -0.0381   -0.5799    5.9586 H   0  0  0  0  0  0
  1  2  1  0  0  0
  1 42  1  0  0  0
  1 43  1  0  0  0
  1 44  1  0  0  0
  2  9  1  0  0  0
  2  3  1  0  0  0
  2 41  1  0  0  0
  3  4  1  0  0  0
  3 45  1  0  0  0
  3 46  1  0  0  0
  4  5  1  0  0  0
  5  6  1  0  0  0
  5  7  1  0  0  0
  5 14  1  0  0  0
  7  8  1  0  0  0
  7  9  1  0  0  0
  7 13  1  0  0  0
  9 10  1  0  0  0
  9 11  1  0  0  0
 11 12  1  0  0  0
 11 65  1  0  0  0
 12 47  1  0  0  0
 12 48  1  0  0  0
 12 49  1  0  0  0
 13 50  1  0  0  0
 14 15  1  0  0  0
 15 16  1  0  0  0
 15 24  1  0  0  0
 15 17  1  0  0  0
 17 18  1  0  0  0
 17 19  1  0  0  0
 17 40  1  0  0  0
 19 20  1  0  0  0
 19 51  1  0  0  0
 19 52  1  0  0  0
 20 21  1  0  0  0
 20 22  1  0  0  0
 20 39  1  0  0  0
 22 23  1  0  0  0
 22 24  1  0  0  0
 22 27  1  0  0  0
 24 25  1  0  0  0
 24 26  1  0  0  0
 26 53  1  0  0  0
 27 28  1  0  0  0
 28 29  1  0  0  0
 28 35  1  0  0  0
 28 30  1  0  0  0
 30 31  1  0  0  0
 30 32  1  0  0  0
 30 38  1  0  0  0
 32 33  1  0  0  0
 32 54  1  0  0  0
 32 55  1  0  0  0
 33 34  2  0  0  0
 33 56  1  0  0  0
 34 35  1  0  0  0
 34 36  1  0  0  0
 36 37  1  0  0  0
 36 57  1  0  0  0
 36 58  1  0  0  0
 37 59  1  0  0  0
 37 66  1  0  0  0
 37 71  1  0  0  0
 38 60  1  0  0  0
 38 68  1  0  0  0
 39 61  1  0  0  0
 39 64  1  0  0  0
 39 69  1  0  0  0
 40 62  1  0  0  0
 40 67  1  0  0  0
 40 70  1  0  0  0
 41 63  1  0  0  0
M  CHG  3  37   1  39   1  40   1
M  END
> <s_m_entry_id>
95

> <s_m_entry_name>
biosynth_p1.0.sdf.88

> <s_m_Source_Path>
/Users/Sebastito/Downloads

> <s_m_Source_File>
biosynth_p1.0.sdf.gz

> <i_m_Source_File_Index>
88

> <chiral flag>
1

> <version>
0

> <i_m_ct_enhanced_stereo_status>
0

> <s_m_source_file>
ligprep_vs.maegz

> <i_m_source_file_index>
88

> <i_lp_mmshare_version>
37011

> <r_epik_Ionization_Penalty>
2.23666

> <r_epik_Ionization_Penalty_Charging>
0.231425

> <r_epik_Ionization_Penalty_Neutral>
2.00524

> <r_epik_State_Penalty>
2.4054

> <r_epik_Charging_Adjusted_Penalty>
2.63682

> <i_epik_Tot_Q>
3

> <i_epik_Tot_abs_Q>
3

> <s_epik_Chemistry_Notes>
This compound contains an acetal/aminal-like group ( X-CH(R)-Y where X, Y are N, S, or O) that may be acid/base labile, releasing an aldehyde.

> <i_f3d_flags>
0

> <s_lp_Force_Field>
OPLS_2005

> <r_lp_Energy>
76.0148

> <b_lp_Chiralities_Consistent>
1

> <s_lp_Variant>
ZINC60184549-10

$$$$
ZINC60184549
                    3D
 Structure written by MMmdl.
 71 73  0  0  1  0            999 V2000
   -3.2421    2.8295   -1.5692 C   0  0  0  0  0  0
   -2.4847    3.0124   -0.2362 C   0  0  2  0  0  0
   -0.9639    3.1201   -0.4756 C   0  0  0  0  0  0
   -0.4185    1.8416   -0.7862 O   0  0  0  0  0  0
   -0.5246    0.9153    0.2544 C   0  0  1  0  0  0
   -0.0843    1.3475    1.1559 H   0  0  0  0  0  0
   -2.0122    0.5921    0.5008 C   0  0  1  0  0  0
   -2.0565   -0.0776    1.3582 H   0  0  0  0  0  0
   -2.7475    1.9164    0.8313 C   0  0  2  0  0  0
   -2.3258    2.2844    1.7690 H   0  0  0  0  0  0
   -4.1974    1.7203    1.0740 N   0  3  0  0  0  0
   -4.5393    1.0049    2.3195 C   0  0  0  0  0  0
   -2.5875   -0.0986   -0.5932 O   0  0  0  0  0  0
    0.1525   -0.2699   -0.0132 O   0  0  0  0  0  0
    1.5720   -0.1396   -0.0568 C   0  0  2  0  0  0
    1.8871    0.9063   -0.0314 H   0  0  0  0  0  0
    2.0704   -0.7684   -1.3775 C   0  0  1  0  0  0
    3.1453   -0.5958   -1.4473 H   0  0  0  0  0  0
    1.8341   -2.2934   -1.4202 C   0  0  0  0  0  0
    2.4598   -2.9972   -0.1957 C   0  0  1  0  0  0
    3.5286   -2.7807   -0.2216 H   0  0  0  0  0  0
    1.9145   -2.4154    1.1271 C   0  0  1  0  0  0
    2.4265   -2.9033    1.9585 H   0  0  0  0  0  0
    2.2026   -0.8945    1.1334 C   0  0  2  0  0  0
    3.2827   -0.7882    1.0226 H   0  0  0  0  0  0
    1.9622   -0.2715    2.3765 O   0  0  0  0  0  0
    0.5178   -2.7105    1.1204 O   0  0  0  0  0  0
   -0.1042   -2.8332    2.3598 C   0  0  2  0  0  0
    0.5784   -3.3035    3.0706 H   0  0  0  0  0  0
   -1.3366   -3.7433    2.1647 C   0  0  1  0  0  0
   -0.9959   -4.7103    1.7924 H   0  0  0  0  0  0
   -2.0232   -3.9245    3.5271 C   0  0  0  0  0  0
   -2.1652   -2.5939    4.2282 C   0  0  0  0  0  0
   -1.4313   -1.5216    3.8831 C   0  0  0  0  0  0
   -0.4800   -1.5862    2.8871 O   0  0  0  0  0  0
   -1.5633   -0.1618    4.5478 C   0  0  0  0  0  0
   -0.8072    0.8787    3.8768 N   0  0  0  0  0  0
   -2.2589   -3.1733    1.1638 N   0  3  0  0  0  0
    2.3189   -4.4606   -0.2532 N   0  0  0  0  0  0
    1.4735   -0.0989   -2.5480 N   0  3  0  0  0  0
   -2.9049    4.2507    0.3054 O   0  0  0  0  0  0
   -2.9152    1.9427   -2.1102 H   0  0  0  0  0  0
   -3.0718    3.6786   -2.2326 H   0  0  0  0  0  0
   -4.3196    2.7528   -1.4217 H   0  0  0  0  0  0
   -0.7502    3.8055   -1.2964 H   0  0  0  0  0  0
   -0.4551    3.5226    0.4025 H   0  0  0  0  0  0
   -5.6224    0.9674    2.4361 H   0  0  0  0  0  0
   -4.1244    1.5176    3.1877 H   0  0  0  0  0  0
   -4.1677   -0.0195    2.3070 H   0  0  0  0  0  0
   -3.4882   -0.3003   -0.3918 H   0  0  0  0  0  0
    0.7649   -2.5054   -1.4689 H   0  0  0  0  0  0
    2.2668   -2.7021   -2.3343 H   0  0  0  0  0  0
    1.0479   -0.3783    2.5918 H   0  0  0  0  0  0
   -3.0053   -4.3828    3.4045 H   0  0  0  0  0  0
   -1.4396   -4.5874    4.1671 H   0  0  0  0  0  0
   -2.8828   -2.5321    5.0335 H   0  0  0  0  0  0
   -2.6153    0.1233    4.5686 H   0  0  0  0  0  0
   -1.2265   -0.2343    5.5824 H   0  0  0  0  0  0
   -0.9569    1.7550    4.3576 H   0  0  0  0  0  0
   -2.5857   -2.2741    1.4850 H   0  0  0  0  0  0
    2.7397   -4.8283   -1.1058 H   0  0  0  0  0  0
    0.4710   -0.2225   -2.5319 H   0  0  0  0  0  0
   -2.3515    4.4681    1.0406 H   0  0  0  0  0  0
    2.8034   -4.8983    0.5296 H   0  0  0  0  0  0
   -4.6182    2.6377    1.1280 H   0  0  0  0  0  0
    0.1794    0.6804    3.9722 H   0  0  0  0  0  0
    1.8486   -0.5000   -3.3959 H   0  0  0  0  0  0
   -3.0438   -3.7959    1.0355 H   0  0  0  0  0  0
    1.6887    0.8876   -2.5201 H   0  0  0  0  0  0
   -4.5999    1.2358    0.2848 H   0  0  0  0  0  0
   -1.7689   -3.0623    0.2873 H   0  0  0  0  0  0
  1  2  1  0  0  0
  1 42  1  0  0  0
  1 43  1  0  0  0
  1 44  1  0  0  0
  2  9  1  0  0  0
  2  3  1  0  0  0
  2 41  1  0  0  0
  3  4  1  0  0  0
  3 45  1  0  0  0
  3 46  1  0  0  0
  4  5  1  0  0  0
  5  6  1  0  0  0
  5  7  1  0  0  0
  5 14  1  0  0  0
  7  8  1  0  0  0
  7  9  1  0  0  0
  7 13  1  0  0  0
  9 10  1  0  0  0
  9 11  1  0  0  0
 11 12  1  0  0  0
 11 65  1  0  0  0
 11 70  1  0  0  0
 12 47  1  0  0  0
 12 48  1  0  0  0
 12 49  1  0  0  0
 13 50  1  0  0  0
 14 15  1  0  0  0
 15 16  1  0  0  0
 15 24  1  0  0  0
 15 17  1  0  0  0
 17 18  1  0  0  0
 17 19  1  0  0  0
 17 40  1  0  0  0
 19 20  1  0  0  0
 19 51  1  0  0  0
 19 52  1  0  0  0
 20 21  1  0  0  0
 20 22  1  0  0  0
 20 39  1  0  0  0
 22 23  1  0  0  0
 22 24  1  0  0  0
 22 27  1  0  0  0
 24 25  1  0  0  0
 24 26  1  0  0  0
 26 53  1  0  0  0
 27 28  1  0  0  0
 28 29  1  0  0  0
 28 35  1  0  0  0
 28 30  1  0  0  0
 30 31  1  0  0  0
 30 32  1  0  0  0
 30 38  1  0  0  0
 32 33  1  0  0  0
 32 54  1  0  0  0
 32 55  1  0  0  0
 33 34  2  0  0  0
 33 56  1  0  0  0
 34 35  1  0  0  0
 34 36  1  0  0  0
 36 37  1  0  0  0
 36 57  1  0  0  0
 36 58  1  0  0  0
 37 59  1  0  0  0
 37 66  1  0  0  0
 38 60  1  0  0  0
 38 68  1  0  0  0
 38 71  1  0  0  0
 39 61  1  0  0  0
 39 64  1  0  0  0
 40 62  1  0  0  0
 40 67  1  0  0  0
 40 69  1  0  0  0
 41 63  1  0  0  0
M  CHG  3  11   1  38   1  40   1
M  END
> <s_m_entry_id>
95

> <s_m_entry_name>
biosynth_p1.0.sdf.88

> <s_m_Source_Path>
/Users/Sebastito/Downloads

> <s_m_Source_File>
biosynth_p1.0.sdf.gz

> <i_m_Source_File_Index>
88

> <chiral flag>
1

> <version>
0

> <i_m_ct_enhanced_stereo_status>
0

> <s_m_source_file>
ligprep_vs.maegz

> <i_m_source_file_index>
88

> <i_lp_mmshare_version>
37011

> <r_epik_Ionization_Penalty>
2.18991

> <r_epik_Ionization_Penalty_Charging>
0.179312

> <r_epik_Ionization_Penalty_Neutral>
2.0106

> <r_epik_State_Penalty>
2.42851

> <r_epik_Charging_Adjusted_Penalty>
2.60782

> <i_epik_Tot_Q>
3

> <i_epik_Tot_abs_Q>
3

> <s_epik_Chemistry_Notes>
This compound contains an acetal/aminal-like group ( X-CH(R)-Y where X, Y are N, S, or O) that may be acid/base labile, releasing an aldehyde.

> <i_f3d_flags>
0

> <s_lp_Force_Field>
OPLS_2005

> <r_lp_Energy>
60.0049

> <b_lp_Chiralities_Consistent>
1

> <s_lp_Variant>
ZINC60184549-11

$$$$
ZINC60184549
                    3D
 Structure written by MMmdl.
 71 73  0  0  1  0            999 V2000
   -2.6255    2.9660   -1.8324 C   0  0  0  0  0  0
   -1.8953    3.1246   -0.4814 C   0  0  2  0  0  0
   -0.3675    2.9954   -0.6597 C   0  0  0  0  0  0
   -0.0021    1.6335   -0.8589 O   0  0  0  0  0  0
   -0.2832    0.8073    0.2320 C   0  0  1  0  0  0
    0.1725    1.2394    1.1258 H   0  0  0  0  0  0
   -1.8101    0.7157    0.4216 C   0  0  1  0  0  0
   -1.9863    0.1173    1.3136 H   0  0  0  0  0  0
   -2.3526    2.1513    0.6383 C   0  0  2  0  0  0
   -1.9121    2.5160    1.5685 H   0  0  0  0  0  0
   -3.8223    2.1844    0.8331 N   0  3  0  0  0  0
   -4.3046    1.5997    2.1007 C   0  0  0  0  0  0
   -2.4375    0.0466   -0.6568 O   0  0  0  0  0  0
    0.2334   -0.4764    0.0836 O   0  0  0  0  0  0
    1.6580   -0.5369    0.1264 C   0  0  2  0  0  0
    2.1146    0.4553    0.1506 H   0  0  0  0  0  0
    2.1556   -1.2758   -1.1364 C   0  0  1  0  0  0
    3.2446   -1.2944   -1.0746 H   0  0  0  0  0  0
    1.6976   -2.7489   -1.1621 C   0  0  0  0  0  0
    2.1272   -3.4947    0.1210 C   0  0  1  0  0  0
    3.2172   -3.4898    0.1670 H   0  0  0  0  0  0
    1.5823   -2.7971    1.3882 C   0  0  1  0  0  0
    1.9607   -3.3240    2.2660 H   0  0  0  0  0  0
    2.0931   -1.3336    1.3749 C   0  0  2  0  0  0
    3.1816   -1.3955    1.3297 H   0  0  0  0  0  0
    1.8900   -0.6342    2.5839 O   0  0  0  0  0  0
    0.1608   -2.9062    1.2923 O   0  0  0  0  0  0
   -0.5618   -2.8728    2.4831 C   0  0  2  0  0  0
   -0.0304   -3.4465    3.2453 H   0  0  0  0  0  0
   -1.9305   -3.5338    2.2056 C   0  0  1  0  0  0
   -1.7595   -4.5526    1.8561 H   0  0  0  0  0  0
   -2.7257   -3.5627    3.5201 C   0  0  0  0  0  0
   -2.6608   -2.2171    4.2034 C   0  0  0  0  0  0
   -1.7182   -1.3070    3.9009 C   0  0  0  0  0  0
   -0.7342   -1.5666    2.9701 O   0  0  0  0  0  0
   -1.6341    0.0663    4.5443 C   0  0  0  0  0  0
   -0.7872    0.9850    3.8088 N   0  0  0  0  0  0
   -2.6604   -2.8060    1.1491 N   0  3  0  0  0  0
    1.7335   -4.9151    0.0733 N   0  3  0  0  0  0
    1.8123   -0.5561   -2.3718 N   0  0  0  0  0  0
   -2.1472    4.4435   -0.0332 O   0  0  0  0  0  0
   -2.4121    2.0086   -2.3052 H   0  0  0  0  0  0
   -2.3101    3.7369   -2.5368 H   0  0  0  0  0  0
   -3.7069    3.0538   -1.7271 H   0  0  0  0  0  0
   -0.0276    3.5819   -1.5140 H   0  0  0  0  0  0
    0.1643    3.3833    0.2113 H   0  0  0  0  0  0
   -5.3833    1.7349    2.1806 H   0  0  0  0  0  0
   -3.8386    2.0889    2.9565 H   0  0  0  0  0  0
   -4.0963    0.5311    2.1530 H   0  0  0  0  0  0
   -3.3697    0.0243   -0.5057 H   0  0  0  0  0  0
    0.6148   -2.7999   -1.2864 H   0  0  0  0  0  0
    2.1276   -3.2455   -2.0331 H   0  0  0  0  0  0
    2.3789    0.1743    2.5488 H   0  0  0  0  0  0
   -3.7662   -3.8320    3.3342 H   0  0  0  0  0  0
   -2.3194   -4.3120    4.2002 H   0  0  0  0  0  0
   -3.4049   -2.0076    4.9584 H   0  0  0  0  0  0
   -2.6355    0.4906    4.6194 H   0  0  0  0  0  0
   -1.2484   -0.0381    5.5585 H   0  0  0  0  0  0
   -0.7599    1.8709    4.2944 H   0  0  0  0  0  0
   -2.8289   -1.8587    1.4545 H   0  0  0  0  0  0
    0.7273   -4.9869    0.0290 H   0  0  0  0  0  0
    0.8006   -0.4850   -2.4722 H   0  0  0  0  0  0
   -1.5895    4.6260    0.7080 H   0  0  0  0  0  0
    2.0700   -5.3883    0.8999 H   0  0  0  0  0  0
   -4.1026    3.1553    0.8219 H   0  0  0  0  0  0
    0.1606    0.6340    3.8196 H   0  0  0  0  0  0
    2.1666    0.3990   -2.3379 H   0  0  0  0  0  0
   -3.5410   -3.2659    0.9668 H   0  0  0  0  0  0
    2.1367   -5.3475   -0.7460 H   0  0  0  0  0  0
   -4.2672    1.7196    0.0548 H   0  0  0  0  0  0
   -2.1047   -2.7913    0.3055 H   0  0  0  0  0  0
  1  2  1  0  0  0
  1 42  1  0  0  0
  1 43  1  0  0  0
  1 44  1  0  0  0
  2  9  1  0  0  0
  2  3  1  0  0  0
  2 41  1  0  0  0
  3  4  1  0  0  0
  3 45  1  0  0  0
  3 46  1  0  0  0
  4  5  1  0  0  0
  5  6  1  0  0  0
  5  7  1  0  0  0
  5 14  1  0  0  0
  7  8  1  0  0  0
  7  9  1  0  0  0
  7 13  1  0  0  0
  9 10  1  0  0  0
  9 11  1  0  0  0
 11 12  1  0  0  0
 11 65  1  0  0  0
 11 70  1  0  0  0
 12 47  1  0  0  0
 12 48  1  0  0  0
 12 49  1  0  0  0
 13 50  1  0  0  0
 14 15  1  0  0  0
 15 16  1  0  0  0
 15 24  1  0  0  0
 15 17  1  0  0  0
 17 18  1  0  0  0
 17 19  1  0  0  0
 17 40  1  0  0  0
 19 20  1  0  0  0
 19 51  1  0  0  0
 19 52  1  0  0  0
 20 21  1  0  0  0
 20 22  1  0  0  0
 20 39  1  0  0  0
 22 23  1  0  0  0
 22 24  1  0  0  0
 22 27  1  0  0  0
 24 25  1  0  0  0
 24 26  1  0  0  0
 26 53  1  0  0  0
 27 28  1  0  0  0
 28 29  1  0  0  0
 28 35  1  0  0  0
 28 30  1  0  0  0
 30 31  1  0  0  0
 30 32  1  0  0  0
 30 38  1  0  0  0
 32 33  1  0  0  0
 32 54  1  0  0  0
 32 55  1  0  0  0
 33 34  2  0  0  0
 33 56  1  0  0  0
 34 35  1  0  0  0
 34 36  1  0  0  0
 36 37  1  0  0  0
 36 57  1  0  0  0
 36 58  1  0  0  0
 37 59  1  0  0  0
 37 66  1  0  0  0
 38 60  1  0  0  0
 38 68  1  0  0  0
 38 71  1  0  0  0
 39 61  1  0  0  0
 39 64  1  0  0  0
 39 69  1  0  0  0
 40 62  1  0  0  0
 40 67  1  0  0  0
 41 63  1  0  0  0
M  CHG  3  11   1  38   1  39   1
M  END
> <s_m_entry_id>
95

> <s_m_entry_name>
biosynth_p1.0.sdf.88

> <s_m_Source_Path>
/Users/Sebastito/Downloads

> <s_m_Source_File>
biosynth_p1.0.sdf.gz

> <i_m_Source_File_Index>
88

> <chiral flag>
1

> <version>
0

> <i_m_ct_enhanced_stereo_status>
0

> <s_m_source_file>
ligprep_vs.maegz

> <i_m_source_file_index>
88

> <i_lp_mmshare_version>
37011

> <r_epik_Ionization_Penalty>
2.2111

> <r_epik_Ionization_Penalty_Charging>
0.195249

> <r_epik_Ionization_Penalty_Neutral>
2.01585

> <r_epik_State_Penalty>
2.46226

> <r_epik_Charging_Adjusted_Penalty>
2.65751

> <i_epik_Tot_Q>
3

> <i_epik_Tot_abs_Q>
3

> <s_epik_Chemistry_Notes>
This compound contains an acetal/aminal-like group ( X-CH(R)-Y where X, Y are N, S, or O) that may be acid/base labile, releasing an aldehyde.

> <i_f3d_flags>
0

> <s_lp_Force_Field>
OPLS_2005

> <r_lp_Energy>
63.2899

> <b_lp_Chiralities_Consistent>
1

> <s_lp_Variant>
ZINC60184549-12

$$$$
ZINC38612157
                    3D
 Structure written by MMmdl.
 42 44  0  0  1  0            999 V2000
    0.0171    0.0071    2.5061 C   0  0  0  0  0  0
   -0.3551   -0.7834    1.2439 C   0  0  0  0  0  0
    0.0674   -0.0853   -0.0618 C   0  0  2  0  0  0
   -0.3376    0.9264   -0.0294 H   0  0  0  0  0  0
   -0.5191   -0.8106   -1.2842 C   0  0  0  0  0  0
    1.5220   -0.0231   -0.1532 N   0  0  0  0  0  0
    2.2083    1.0764   -0.7055 C   0  0  0  0  0  0
    1.5370    1.9685   -1.5712 C   0  0  0  0  0  0
    2.2112    3.0465   -2.1594 C   0  0  0  0  0  0
    3.5750    3.2608   -1.9046 C   0  0  0  0  0  0
    4.2811    2.3850   -1.0315 C   0  0  0  0  0  0
    3.5932    1.2905   -0.4248 C   0  0  0  0  0  0
    4.3547    0.3935    0.5121 C   0  0  0  0  0  0
    3.8231   -0.1702    1.4703 O   0  0  0  0  0  0
    5.8156    0.2515    0.1976 C   0  0  0  0  0  0
    6.5375   -0.9323    0.5245 C   0  0  0  0  0  0
    7.9092   -1.0260    0.2345 C   0  0  0  0  0  0
    8.5746    0.0329   -0.3979 C   0  0  0  0  0  0
    7.8823    1.2062   -0.7526 C   0  0  0  0  0  0
    6.4965    1.3322   -0.4373 C   0  0  0  0  0  0
    5.7370    2.5882   -0.7318 C   0  0  0  0  0  0
    6.2675    3.7001   -0.7211 O   0  0  0  0  0  0
    8.6373    2.2476   -1.4672 N   0  3  0  0  0  0
    8.2646    2.5571   -2.5944 O   0  0  0  0  0  0
    9.6190    2.7216   -0.9058 O   0  5  0  0  0  0
    5.9523   -2.0238    1.1059 O   0  5  0  0  0  0
    4.1776    4.3399   -2.5581 N   0  0  0  0  0  0
   -0.3381   -0.5036    3.4012 H   0  0  0  0  0  0
   -0.4277    1.0023    2.4920 H   0  0  0  0  0  0
    1.0969    0.1240    2.6013 H   0  0  0  0  0  0
    0.0831   -1.7812    1.2942 H   0  0  0  0  0  0
   -1.4362   -0.9273    1.2395 H   0  0  0  0  0  0
   -1.6081   -0.8334   -1.2403 H   0  0  0  0  0  0
   -0.1681   -1.8417   -1.3373 H   0  0  0  0  0  0
   -0.2408   -0.3213   -2.2174 H   0  0  0  0  0  0
    2.0407   -0.6180    0.4790 H   0  0  0  0  0  0
    0.4947    1.8386   -1.8167 H   0  0  0  0  0  0
    1.6718    3.7057   -2.8241 H   0  0  0  0  0  0
    8.4560   -1.9236    0.4852 H   0  0  0  0  0  0
    9.6248   -0.0662   -0.6308 H   0  0  0  0  0  0
    5.1223    4.6173   -2.3301 H   0  0  0  0  0  0
    3.6245    5.0059   -3.0777 H   0  0  0  0  0  0
  1  2  1  0  0  0
  1 28  1  0  0  0
  1 29  1  0  0  0
  1 30  1  0  0  0
  2  3  1  0  0  0
  2 31  1  0  0  0
  2 32  1  0  0  0
  3  4  1  0  0  0
  3  5  1  0  0  0
  3  6  1  0  0  0
  5 33  1  0  0  0
  5 34  1  0  0  0
  5 35  1  0  0  0
  6  7  1  0  0  0
  6 36  1  0  0  0
  7 12  2  0  0  0
  7  8  1  0  0  0
  8  9  2  0  0  0
  8 37  1  0  0  0
  9 10  1  0  0  0
  9 38  1  0  0  0
 10 11  2  0  0  0
 10 27  1  0  0  0
 11 21  1  0  0  0
 11 12  1  0  0  0
 12 13  1  0  0  0
 13 14  2  0  0  0
 13 15  1  0  0  0
 15 20  2  0  0  0
 15 16  1  0  0  0
 16 17  2  0  0  0
 16 26  1  0  0  0
 17 18  1  0  0  0
 17 39  1  0  0  0
 18 19  2  0  0  0
 18 40  1  0  0  0
 19 20  1  0  0  0
 19 23  1  0  0  0
 20 21  1  0  0  0
 21 22  2  0  0  0
 23 24  2  0  0  0
 23 25  1  0  0  0
 27 41  1  0  0  0
 27 42  1  0  0  0
M  CHG  3  23   1  25  -1  26  -1
M  END
> <s_m_entry_id>
96

> <s_m_entry_name>
biosynth_p1.0.sdf.89

> <s_m_Source_Path>
/Users/Sebastito/Downloads

> <s_m_Source_File>
biosynth_p1.0.sdf.gz

> <i_m_Source_File_Index>
89

> <chiral flag>
1

> <version>
0

> <i_m_ct_enhanced_stereo_status>
0

> <s_m_source_file>
ligprep_vs.maegz

> <i_m_source_file_index>
89

> <i_lp_mmshare_version>
37011

> <r_epik_Ionization_Penalty>
0.096373

> <r_epik_Ionization_Penalty_Charging>
0.0963431

> <r_epik_Ionization_Penalty_Neutral>
2.98705e-05

> <r_epik_State_Penalty>
0.0864979

> <r_epik_Charging_Adjusted_Penalty>
0.182841

> <i_epik_Tot_Q>
-1

> <i_epik_Tot_abs_Q>
3

> <i_f3d_flags>
0

> <s_lp_Force_Field>
OPLS_2005

> <r_lp_Energy>
42.8139

> <b_lp_Chiralities_Consistent>
1

> <s_lp_Variant>
ZINC38612157-1

$$$$
ZINC38612157
                    3D
 Structure written by MMmdl.
 43 45  0  0  1  0            999 V2000
    0.0056    0.0027    2.5084 C   0  0  0  0  0  0
   -0.3709   -0.7780    1.2413 C   0  0  0  0  0  0
    0.0589   -0.0749   -0.0595 C   0  0  2  0  0  0
   -0.3405    0.9388   -0.0228 H   0  0  0  0  0  0
   -0.5297   -0.7903   -1.2868 C   0  0  0  0  0  0
    1.5146   -0.0196   -0.1463 N   0  0  0  0  0  0
    2.2079    1.0752   -0.7000 C   0  0  0  0  0  0
    1.5405    1.9700   -1.5659 C   0  0  0  0  0  0
    2.2201    3.0413   -2.1592 C   0  0  0  0  0  0
    3.5855    3.2481   -1.9080 C   0  0  0  0  0  0
    4.2877    2.3725   -1.0316 C   0  0  0  0  0  0
    3.5950    1.2821   -0.4214 C   0  0  0  0  0  0
    4.3535    0.3795    0.5135 C   0  0  0  0  0  0
    3.8194   -0.2064    1.4565 O   0  0  0  0  0  0
    5.8157    0.2465    0.2139 C   0  0  0  0  0  0
    6.5320   -0.9307    0.5662 C   0  0  0  0  0  0
    7.9055   -1.0321    0.2880 C   0  0  0  0  0  0
    8.5763    0.0165   -0.3568 C   0  0  0  0  0  0
    7.8887    1.1868   -0.7324 C   0  0  0  0  0  0
    6.5011    1.3191   -0.4275 C   0  0  0  0  0  0
    5.7446    2.5733   -0.7343 C   0  0  0  0  0  0
    6.2795    3.6830   -0.7320 O   0  0  0  0  0  0
    8.6498    2.2169   -1.4572 N   0  3  0  0  0  0
    8.2754    2.5208   -2.5850 O   0  0  0  0  0  0
    9.6379    2.6851   -0.9028 O   0  5  0  0  0  0
    5.9322   -2.0035    1.1655 O   0  0  0  0  0  0
    4.1934    4.3197   -2.5687 N   0  0  0  0  0  0
   -0.3601   -0.5068    3.4000 H   0  0  0  0  0  0
   -0.4267    1.0035    2.4967 H   0  0  0  0  0  0
    1.0863    0.1058    2.6090 H   0  0  0  0  0  0
    0.0596   -1.7795    1.2863 H   0  0  0  0  0  0
   -1.4530   -0.9140    1.2343 H   0  0  0  0  0  0
   -1.6193   -0.7993   -1.2486 H   0  0  0  0  0  0
   -0.1921   -1.8259   -1.3398 H   0  0  0  0  0  0
   -0.2415   -0.3032   -2.2181 H   0  0  0  0  0  0
    2.0258   -0.6149    0.4908 H   0  0  0  0  0  0
    0.4965    1.8473   -1.8085 H   0  0  0  0  0  0
    1.6836    3.7021   -2.8249 H   0  0  0  0  0  0
    8.4493   -1.9261    0.5564 H   0  0  0  0  0  0
    9.6279   -0.0872   -0.5816 H   0  0  0  0  0  0
    5.1388    4.5965   -2.3424 H   0  0  0  0  0  0
    3.6427    4.9856   -3.0918 H   0  0  0  0  0  0
    6.5307   -2.7122    1.3461 H   0  0  0  0  0  0
  1  2  1  0  0  0
  1 28  1  0  0  0
  1 29  1  0  0  0
  1 30  1  0  0  0
  2  3  1  0  0  0
  2 31  1  0  0  0
  2 32  1  0  0  0
  3  4  1  0  0  0
  3  5  1  0  0  0
  3  6  1  0  0  0
  5 33  1  0  0  0
  5 34  1  0  0  0
  5 35  1  0  0  0
  6  7  1  0  0  0
  6 36  1  0  0  0
  7 12  2  0  0  0
  7  8  1  0  0  0
  8  9  2  0  0  0
  8 37  1  0  0  0
  9 10  1  0  0  0
  9 38  1  0  0  0
 10 11  2  0  0  0
 10 27  1  0  0  0
 11 21  1  0  0  0
 11 12  1  0  0  0
 12 13  1  0  0  0
 13 14  2  0  0  0
 13 15  1  0  0  0
 15 20  2  0  0  0
 15 16  1  0  0  0
 16 17  2  0  0  0
 16 26  1  0  0  0
 17 18  1  0  0  0
 17 39  1  0  0  0
 18 19  2  0  0  0
 18 40  1  0  0  0
 19 20  1  0  0  0
 19 23  1  0  0  0
 20 21  1  0  0  0
 21 22  2  0  0  0
 23 24  2  0  0  0
 23 25  1  0  0  0
 26 43  1  0  0  0
 27 41  1  0  0  0
 27 42  1  0  0  0
M  CHG  2  23   1  25  -1
M  END
> <s_m_entry_id>
96

> <s_m_entry_name>
biosynth_p1.0.sdf.89

> <s_m_Source_Path>
/Users/Sebastito/Downloads

> <s_m_Source_File>
biosynth_p1.0.sdf.gz

> <i_m_Source_File_Index>
89

> <chiral flag>
1

> <version>
0

> <i_m_ct_enhanced_stereo_status>
0

> <s_m_source_file>
ligprep_vs.maegz

> <i_m_source_file_index>
89

> <i_lp_mmshare_version>
37011

> <r_epik_Ionization_Penalty>
1.12374

> <r_epik_Ionization_Penalty_Charging>
0

> <r_epik_Ionization_Penalty_Neutral>
1.12374

> <r_epik_State_Penalty>
1.18279

> <r_epik_Charging_Adjusted_Penalty>
1.18279

> <i_epik_Tot_Q>
0

> <i_epik_Tot_abs_Q>
2

> <i_f3d_flags>
0

> <s_lp_Force_Field>
OPLS_2005

> <r_lp_Energy>
40.8908

> <b_lp_Chiralities_Consistent>
1

> <s_lp_Variant>
ZINC38612157-2

$$$$
ZINC18115268
                    3D
 Structure written by MMmdl.
 33 33  0  0  1  0            999 V2000
   -2.3649    2.2658   -3.2074 C   0  0  0  0  0  0
   -2.6760    0.9160   -2.6534 C   0  0  0  0  0  0
   -2.6695    0.4384   -1.3586 C   0  0  0  0  0  0
   -3.0328   -0.9116   -1.3492 N   0  0  0  0  0  0
   -3.2420   -1.2006   -2.6275 C   0  0  0  0  0  0
   -3.0462   -0.1604   -3.4418 N   0  0  0  0  0  0
   -3.1517   -0.1597   -4.4463 H   0  0  0  0  0  0
   -2.3330    1.1607   -0.0875 C   0  0  0  0  0  0
   -0.5618    1.5614   -0.0382 S   0  0  0  0  0  0
    0.1619   -0.1016   -0.0512 C   0  0  0  0  0  0
    1.6924   -0.0424    0.0478 C   0  0  0  0  0  0
    2.3025   -1.3658    0.0212 N   0  0  0  0  0  0
    2.4568   -2.1976   -1.0959 C   0  0  0  0  0  0
    2.1259   -1.5881   -2.3003 N   0  0  0  0  0  0
    2.1803   -2.2344   -3.6008 C   0  0  0  0  0  0
    2.8719   -3.4305   -1.0790 N   0  0  0  0  0  0
    3.1783   -3.9685    0.0980 C   0  0  0  0  0  0
    3.4495   -4.4428    1.1187 N   0  0  0  0  0  0
   -2.7235    3.0501   -2.5409 H   0  0  0  0  0  0
   -2.8355    2.4111   -4.1800 H   0  0  0  0  0  0
   -1.2892    2.3931   -3.3289 H   0  0  0  0  0  0
   -3.5407   -2.1790   -2.9738 H   0  0  0  0  0  0
   -2.5857    0.5606    0.7873 H   0  0  0  0  0  0
   -2.9030    2.0869   -0.0124 H   0  0  0  0  0  0
   -0.2489   -0.6730    0.7817 H   0  0  0  0  0  0
   -0.1387   -0.6080   -0.9682 H   0  0  0  0  0  0
    2.1036    0.5698   -0.7558 H   0  0  0  0  0  0
    1.9795    0.4426    0.9811 H   0  0  0  0  0  0
    2.5510   -1.7060    0.9395 H   0  0  0  0  0  0
    1.8445   -1.5446   -4.3745 H   0  0  0  0  0  0
    1.5356   -3.1137   -3.6223 H   0  0  0  0  0  0
    3.1997   -2.5427   -3.8351 H   0  0  0  0  0  0
    1.8088   -0.6300   -2.3292 H   0  0  0  0  0  0
  1 19  1  0  0  0
  1 20  1  0  0  0
  1 21  1  0  0  0
  1  2  1  0  0  0
  2  3  2  0  0  0
  2  6  1  0  0  0
  3  8  1  0  0  0
  3  4  1  0  0  0
  4  5  2  0  0  0
  5  6  1  0  0  0
  5 22  1  0  0  0
  6  7  1  0  0  0
  8  9  1  0  0  0
  8 23  1  0  0  0
  8 24  1  0  0  0
  9 10  1  0  0  0
 10 11  1  0  0  0
 10 25  1  0  0  0
 10 26  1  0  0  0
 11 12  1  0  0  0
 11 27  1  0  0  0
 11 28  1  0  0  0
 12 13  1  0  0  0
 12 29  1  0  0  0
 13 14  1  0  0  0
 13 16  2  0  0  0
 14 15  1  0  0  0
 14 33  1  0  0  0
 15 30  1  0  0  0
 15 31  1  0  0  0
 15 32  1  0  0  0
 16 17  1  0  0  0
 17 18  3  0  0  0
M  END
> <s_m_entry_id>
97

> <s_m_entry_name>
biosynth_p1.0.sdf.90

> <s_m_Source_Path>
/Users/Sebastito/Downloads

> <s_m_Source_File>
biosynth_p1.0.sdf.gz

> <i_m_Source_File_Index>
90

> <chiral flag>
0

> <version>
0

> <i_m_ct_enhanced_stereo_status>
0

> <s_m_source_file>
ligprep_vs.maegz

> <i_m_source_file_index>
90

> <i_lp_mmshare_version>
37011

> <r_lp_tautomer_probability>
0.5

> <r_epik_Ionization_Penalty>
0.291778

> <r_epik_Ionization_Penalty_Charging>
0.265381

> <r_epik_Ionization_Penalty_Neutral>
0.0263964

> <r_epik_State_Penalty>
0.524268

> <r_epik_Charging_Adjusted_Penalty>
0.789649

> <i_epik_Tot_Q>
0

> <i_epik_Tot_abs_Q>
0

> <s_epik_Chemistry_Notes>
This compound has an imine and may undergo hydrolysis.

> <i_f3d_flags>
0

> <s_lp_Force_Field>
OPLS_2005

> <r_lp_Energy>
6.25789

> <b_lp_Chiralities_Consistent>
1

> <s_lp_Variant>
ZINC18115268-1

$$$$
ZINC18115268
                    3D
 Structure written by MMmdl.
 34 34  0  0  1  0            999 V2000
    1.0801    3.2425   -2.9467 C   0  0  0  0  0  0
    0.7477    1.8007   -3.1324 C   0  0  0  0  0  0
   -0.2700    1.0266   -2.6241 C   0  0  0  0  0  0
   -0.0775   -0.2347   -3.1287 N   0  0  0  0  0  0
    1.0056   -0.2683   -3.9076 C   0  0  0  0  0  0
    1.5089    0.9679   -3.9118 N   0  3  0  0  0  0
   -0.6702   -1.0326   -2.9359 H   0  0  0  0  0  0
   -1.3990    1.3557   -1.7027 C   0  0  0  0  0  0
   -0.7931    1.6735   -0.0170 S   0  0  0  0  0  0
   -0.0832    0.0617    0.4242 C   0  0  0  0  0  0
    1.4260    0.0096    0.1555 C   0  0  0  0  0  0
    1.9431   -1.3417    0.2975 N   0  0  0  0  0  0
    3.2361   -1.7504   -0.0459 C   0  0  0  0  0  0
    4.1571   -0.7105   -0.0766 N   0  0  0  0  0  0
    5.5620   -0.8589   -0.4189 C   0  0  0  0  0  0
    3.6065   -2.9679   -0.3154 N   0  0  0  0  0  0
    2.6787   -3.9202   -0.2829 C   0  0  0  0  0  0
    1.8622   -4.7404   -0.2634 N   0  0  0  0  0  0
    0.2118    3.7881   -2.5766 H   0  0  0  0  0  0
    1.3904    3.6873   -3.8925 H   0  0  0  0  0  0
    1.8904    3.3503   -2.2256 H   0  0  0  0  0  0
    1.3961   -1.1238   -4.4294 H   0  0  0  0  0  0
   -1.9155    2.2426   -2.0700 H   0  0  0  0  0  0
   -2.1230    0.5402   -1.6857 H   0  0  0  0  0  0
   -0.2707   -0.1216    1.4827 H   0  0  0  0  0  0
   -0.6075   -0.7198   -0.1269 H   0  0  0  0  0  0
    1.6502    0.3599   -0.8507 H   0  0  0  0  0  0
    1.9461    0.6745    0.8460 H   0  0  0  0  0  0
    1.2218   -2.0324    0.4514 H   0  0  0  0  0  0
    6.0621    0.1085   -0.3742 H   0  0  0  0  0  0
    5.6738   -1.2562   -1.4282 H   0  0  0  0  0  0
    6.0587   -1.5337    0.2789 H   0  0  0  0  0  0
    3.8886    0.2324    0.1648 H   0  0  0  0  0  0
    2.3374    1.2484   -4.4214 H   0  0  0  0  0  0
  1 19  1  0  0  0
  1 20  1  0  0  0
  1 21  1  0  0  0
  1  2  1  0  0  0
  2  6  1  0  0  0
  2  3  2  0  0  0
  3  8  1  0  0  0
  3  4  1  0  0  0
  4  5  1  0  0  0
  4  7  1  0  0  0
  5 22  1  0  0  0
  5  6  2  0  0  0
  6 34  1  0  0  0
  8  9  1  0  0  0
  8 23  1  0  0  0
  8 24  1  0  0  0
  9 10  1  0  0  0
 10 11  1  0  0  0
 10 25  1  0  0  0
 10 26  1  0  0  0
 11 12  1  0  0  0
 11 27  1  0  0  0
 11 28  1  0  0  0
 12 13  1  0  0  0
 12 29  1  0  0  0
 13 14  1  0  0  0
 13 16  2  0  0  0
 14 15  1  0  0  0
 14 33  1  0  0  0
 15 30  1  0  0  0
 15 31  1  0  0  0
 15 32  1  0  0  0
 16 17  1  0  0  0
 17 18  3  0  0  0
M  CHG  1   6   1
M  END
> <s_m_entry_id>
97

> <s_m_entry_name>
biosynth_p1.0.sdf.90

> <s_m_Source_Path>
/Users/Sebastito/Downloads

> <s_m_Source_File>
biosynth_p1.0.sdf.gz

> <i_m_Source_File_Index>
90

> <chiral flag>
0

> <version>
0

> <i_m_ct_enhanced_stereo_status>
0

> <s_m_source_file>
ligprep_vs.maegz

> <i_m_source_file_index>
90

> <i_lp_mmshare_version>
37011

> <r_lp_tautomer_probability>
1

> <r_epik_Ionization_Penalty>
0.903339

> <r_epik_Ionization_Penalty_Charging>
0

> <r_epik_Ionization_Penalty_Neutral>
0.903339

> <r_epik_State_Penalty>
0.703808

> <r_epik_Charging_Adjusted_Penalty>
0.703808

> <i_epik_Tot_Q>
1

> <i_epik_Tot_abs_Q>
1

> <s_epik_Chemistry_Notes>
This compound has an imine and may undergo hydrolysis.

> <i_f3d_flags>
0

> <s_lp_Force_Field>
OPLS_2005

> <r_lp_Energy>
8.28456

> <b_lp_Chiralities_Consistent>
1

> <s_lp_Variant>
ZINC18115268-2

$$$$
ZINC18115268
                    3D
 Structure written by MMmdl.
 33 33  0  0  1  0            999 V2000
   -2.9526   -1.3313    1.8941 C   0  0  0  0  0  0
   -2.4776    0.0159    2.3425 C   0  0  0  0  0  0
   -2.2323    1.1475    1.5904 C   0  0  0  0  0  0
   -1.8112    2.1053    2.4987 N   0  0  0  0  0  0
   -1.8203    1.5401    3.7082 C   0  0  0  0  0  0
   -2.2112    0.2723    3.6899 N   0  0  0  0  0  0
   -1.5406    3.0547    2.2857 H   0  0  0  0  0  0
   -2.3531    1.4155    0.1239 C   0  0  0  0  0  0
   -0.7092    1.6630   -0.6064 S   0  0  0  0  0  0
   -0.0414   -0.0258   -0.5382 C   0  0  0  0  0  0
    1.4621   -0.0379   -0.2217 C   0  0  0  0  0  0
    1.7654    0.5349    1.0849 N   0  0  0  0  0  0
    1.4809   -0.0280    2.3358 C   0  0  0  0  0  0
    1.1547   -1.3774    2.2826 N   0  0  0  0  0  0
    0.7503   -2.1772    3.4267 C   0  0  0  0  0  0
    1.5063    0.5959    3.4769 N   0  0  0  0  0  0
    1.7972    1.8934    3.4700 C   0  0  0  0  0  0
    2.0351    3.0261    3.4638 N   0  0  0  0  0  0
   -2.1259   -1.9347    1.5195 H   0  0  0  0  0  0
   -3.6917   -1.2463    1.0975 H   0  0  0  0  0  0
   -3.4166   -1.8827    2.7122 H   0  0  0  0  0  0
   -1.5286    2.0595    4.6091 H   0  0  0  0  0  0
   -2.8580    0.5946   -0.3852 H   0  0  0  0  0  0
   -2.9500    2.3125   -0.0410 H   0  0  0  0  0  0
   -0.5806   -0.6101    0.2048 H   0  0  0  0  0  0
   -0.2285   -0.5058   -1.4986 H   0  0  0  0  0  0
    1.8504   -1.0557   -0.2742 H   0  0  0  0  0  0
    2.0008    0.5341   -0.9777 H   0  0  0  0  0  0
    2.0632    1.4988    1.0291 H   0  0  0  0  0  0
    0.4576   -3.1749    3.1001 H   0  0  0  0  0  0
   -0.0990   -1.7224    3.9372 H   0  0  0  0  0  0
    1.5721   -2.2744    4.1365 H   0  0  0  0  0  0
    1.1515   -1.8794    1.4068 H   0  0  0  0  0  0
  1 19  1  0  0  0
  1 20  1  0  0  0
  1 21  1  0  0  0
  1  2  1  0  0  0
  2  6  1  0  0  0
  2  3  2  0  0  0
  3  8  1  0  0  0
  3  4  1  0  0  0
  4  5  1  0  0  0
  4  7  1  0  0  0
  5 22  1  0  0  0
  5  6  2  0  0  0
  8  9  1  0  0  0
  8 23  1  0  0  0
  8 24  1  0  0  0
  9 10  1  0  0  0
 10 11  1  0  0  0
 10 25  1  0  0  0
 10 26  1  0  0  0
 11 12  1  0  0  0
 11 27  1  0  0  0
 11 28  1  0  0  0
 12 13  1  0  0  0
 12 29  1  0  0  0
 13 14  1  0  0  0
 13 16  2  0  0  0
 14 15  1  0  0  0
 14 33  1  0  0  0
 15 30  1  0  0  0
 15 31  1  0  0  0
 15 32  1  0  0  0
 16 17  1  0  0  0
 17 18  3  0  0  0
M  END
> <s_m_entry_id>
97

> <s_m_entry_name>
biosynth_p1.0.sdf.90

> <s_m_Source_Path>
/Users/Sebastito/Downloads

> <s_m_Source_File>
biosynth_p1.0.sdf.gz

> <i_m_Source_File_Index>
90

> <chiral flag>
0

> <version>
0

> <i_m_ct_enhanced_stereo_status>
0

> <s_m_source_file>
ligprep_vs.maegz

> <i_m_source_file_index>
90

> <i_lp_mmshare_version>
37011

> <r_lp_tautomer_probability>
0.5

> <r_epik_Ionization_Penalty>
0.614101

> <r_epik_Ionization_Penalty_Charging>
0.587704

> <r_epik_Ionization_Penalty_Neutral>
0.0263966

> <r_epik_State_Penalty>
0.832121

> <r_epik_Charging_Adjusted_Penalty>
1.41982

> <i_epik_Tot_Q>
0

> <i_epik_Tot_abs_Q>
0

> <s_epik_Chemistry_Notes>
This compound has an imine and may undergo hydrolysis.

> <i_f3d_flags>
0

> <s_lp_Force_Field>
OPLS_2005

> <r_lp_Energy>
3.88263

> <b_lp_Chiralities_Consistent>
1

> <s_lp_Variant>
ZINC18115268-3

$$$$
ZINC18115268
                    3D
 Structure written by MMmdl.
 34 34  0  0  1  0            999 V2000
   -3.6504   -1.2688    1.3036 C   0  0  0  0  0  0
   -3.2744    0.0354    1.9236 C   0  0  0  0  0  0
   -2.8847    1.2328    1.3591 C   0  0  0  0  0  0
   -2.6299    2.1703    2.3648 N   0  0  0  0  0  0
   -2.8737    1.5131    3.4916 C   0  0  0  0  0  0
   -3.2569    0.2496    3.2916 N   0  0  0  0  0  0
   -3.4924   -0.4233    4.0070 H   0  0  0  0  0  0
   -2.7157    1.5797   -0.0905 C   0  0  0  0  0  0
   -0.9625    1.8704   -0.4643 S   0  0  0  0  0  0
   -0.2708    0.2095   -0.2129 C   0  0  0  0  0  0
    1.2611    0.2340   -0.2268 C   0  0  0  0  0  0
    1.7842    0.8665    0.9926 N   0  0  0  0  0  0
    3.0361    1.3368    1.1806 C   0  0  0  0  0  0
    3.9353    1.2407    0.1811 N   0  0  0  0  0  0
    5.3251    1.7109    0.2287 C   0  0  0  0  0  0
    3.4019    1.9042    2.3535 N   0  3  0  0  0  0
    2.6130    2.0746    3.4371 C   0  0  0  0  0  0
    1.8977    2.2032    4.3372 N   0  0  0  0  0  0
   -2.8255   -1.6669    0.7125 H   0  0  0  0  0  0
   -4.5103   -1.1483    0.6444 H   0  0  0  0  0  0
   -3.9083   -2.0081    2.0625 H   0  0  0  0  0  0
   -2.7714    1.9560    4.4714 H   0  0  0  0  0  0
   -3.2786    2.4808   -0.3341 H   0  0  0  0  0  0
   -3.0918    0.7857   -0.7357 H   0  0  0  0  0  0
   -0.6189   -0.1936    0.7379 H   0  0  0  0  0  0
   -0.6479   -0.4513   -0.9935 H   0  0  0  0  0  0
    1.6507   -0.7827   -0.2785 H   0  0  0  0  0  0
    1.6205    0.7632   -1.1096 H   0  0  0  0  0  0
    1.1375    0.9317    1.7663 H   0  0  0  0  0  0
    5.8184    1.5199   -0.7244 H   0  0  0  0  0  0
    5.8768    1.1926    1.0132 H   0  0  0  0  0  0
    5.3587    2.7827    0.4255 H   0  0  0  0  0  0
    3.6382    0.8133   -0.6846 H   0  0  0  0  0  0
    4.3509    2.2389    2.4380 H   0  0  0  0  0  0
  1 19  1  0  0  0
  1 20  1  0  0  0
  1 21  1  0  0  0
  1  2  1  0  0  0
  2  3  2  0  0  0
  2  6  1  0  0  0
  3  8  1  0  0  0
  3  4  1  0  0  0
  4  5  2  0  0  0
  5  6  1  0  0  0
  5 22  1  0  0  0
  6  7  1  0  0  0
  8  9  1  0  0  0
  8 23  1  0  0  0
  8 24  1  0  0  0
  9 10  1  0  0  0
 10 11  1  0  0  0
 10 25  1  0  0  0
 10 26  1  0  0  0
 11 12  1  0  0  0
 11 27  1  0  0  0
 11 28  1  0  0  0
 12 13  1  0  0  0
 12 29  1  0  0  0
 13 14  1  0  0  0
 13 16  2  0  0  0
 14 15  1  0  0  0
 14 33  1  0  0  0
 15 30  1  0  0  0
 15 31  1  0  0  0
 15 32  1  0  0  0
 16 17  1  0  0  0
 16 34  1  0  0  0
 17 18  3  0  0  0
M  CHG  1  16   1
M  END
> <s_m_entry_id>
97

> <s_m_entry_name>
biosynth_p1.0.sdf.90

> <s_m_Source_Path>
/Users/Sebastito/Downloads

> <s_m_Source_File>
biosynth_p1.0.sdf.gz

> <i_m_Source_File_Index>
90

> <chiral flag>
0

> <version>
0

> <i_m_ct_enhanced_stereo_status>
0

> <s_m_source_file>
ligprep_vs.maegz

> <i_m_source_file_index>
90

> <i_lp_mmshare_version>
37011

> <r_epik_Ionization_Penalty>
2.08309

> <r_epik_Ionization_Penalty_Charging>
2.08309

> <r_epik_Ionization_Penalty_Neutral>
5.53794e-08

> <r_epik_State_Penalty>
2.35058

> <r_epik_Charging_Adjusted_Penalty>
4.43368

> <i_epik_Tot_Q>
1

> <i_epik_Tot_abs_Q>
1

> <s_epik_Chemistry_Notes>
This compound has an imine and may undergo hydrolysis.

> <i_f3d_flags>
0

> <s_lp_Force_Field>
OPLS_2005

> <r_lp_Energy>
6.38001

> <b_lp_Chiralities_Consistent>
1

> <s_lp_Variant>
ZINC18115268-4

$$$$
ZINC18115268
                    3D
 Structure written by MMmdl.
 35 35  0  0  1  0            999 V2000
   -3.5306   -1.2466    1.1086 C   0  0  0  0  0  0
   -3.4029    0.0598    1.8174 C   0  0  0  0  0  0
   -2.9201    1.2812    1.4056 C   0  0  0  0  0  0
   -3.0488    2.1236    2.4805 N   0  0  0  0  0  0
   -3.5844    1.4805    3.5199 C   0  0  0  0  0  0
   -3.8012    0.2260    3.1190 N   0  3  0  0  0  0
   -2.7754    3.0985    2.4869 H   0  0  0  0  0  0
   -2.3517    1.7390    0.1020 C   0  0  0  0  0  0
   -0.5466    1.9027    0.2145 S   0  0  0  0  0  0
   -0.0492    0.1674    0.3908 C   0  0  0  0  0  0
    1.4759    0.0289    0.4251 C   0  0  0  0  0  0
    1.8802   -1.3793    0.5315 N   0  0  0  0  0  0
    3.1382   -1.8287    0.7356 C   0  0  0  0  0  0
    4.1433   -0.9397    0.8675 N   0  0  0  0  0  0
    5.5562   -1.2692    1.0931 C   0  0  0  0  0  0
    3.4093   -3.1524    0.8105 N   0  3  0  0  0  0
    2.5155   -4.1592    0.6997 C   0  0  0  0  0  0
    1.7137   -4.9870    0.5993 N   0  0  0  0  0  0
   -2.7998   -1.3164    0.3026 H   0  0  0  0  0  0
   -4.5291   -1.3455    0.6824 H   0  0  0  0  0  0
   -3.3618   -2.0737    1.7989 H   0  0  0  0  0  0
   -3.8004    1.8927    4.4896 H   0  0  0  0  0  0
   -2.6126    1.0366   -0.6899 H   0  0  0  0  0  0
   -2.7838    2.7047   -0.1617 H   0  0  0  0  0  0
   -0.4813   -0.2375    1.3061 H   0  0  0  0  0  0
   -0.4610   -0.4021   -0.4430 H   0  0  0  0  0  0
    1.9156    0.4536   -0.4777 H   0  0  0  0  0  0
    1.8792    0.5815    1.2742 H   0  0  0  0  0  0
    1.1491   -2.0654    0.4085 H   0  0  0  0  0  0
    6.1426   -0.3566    1.1992 H   0  0  0  0  0  0
    5.9535   -1.8390    0.2530 H   0  0  0  0  0  0
    5.6706   -1.8599    2.0022 H   0  0  0  0  0  0
    3.9197    0.0434    0.8053 H   0  0  0  0  0  0
   -4.2063   -0.4992    3.6978 H   0  0  0  0  0  0
    4.3690   -3.4268    0.9644 H   0  0  0  0  0  0
  1 19  1  0  0  0
  1 20  1  0  0  0
  1 21  1  0  0  0
  1  2  1  0  0  0
  2  6  1  0  0  0
  2  3  2  0  0  0
  3  8  1  0  0  0
  3  4  1  0  0  0
  4  5  1  0  0  0
  4  7  1  0  0  0
  5 22  1  0  0  0
  5  6  2  0  0  0
  6 34  1  0  0  0
  8  9  1  0  0  0
  8 23  1  0  0  0
  8 24  1  0  0  0
  9 10  1  0  0  0
 10 11  1  0  0  0
 10 25  1  0  0  0
 10 26  1  0  0  0
 11 12  1  0  0  0
 11 27  1  0  0  0
 11 28  1  0  0  0
 12 13  1  0  0  0
 12 29  1  0  0  0
 13 14  1  0  0  0
 13 16  2  0  0  0
 14 15  1  0  0  0
 14 33  1  0  0  0
 15 30  1  0  0  0
 15 31  1  0  0  0
 15 32  1  0  0  0
 16 17  1  0  0  0
 16 35  1  0  0  0
 17 18  3  0  0  0
M  CHG  2   6   1  16   1
M  END
> <s_m_entry_id>
97

> <s_m_entry_name>
biosynth_p1.0.sdf.90

> <s_m_Source_Path>
/Users/Sebastito/Downloads

> <s_m_Source_File>
biosynth_p1.0.sdf.gz

> <i_m_Source_File_Index>
90

> <chiral flag>
0

> <version>
0

> <i_m_ct_enhanced_stereo_status>
0

> <s_m_source_file>
ligprep_vs.maegz

> <i_m_source_file_index>
90

> <i_lp_mmshare_version>
37011

> <r_lp_tautomer_probability>
1

> <r_epik_Ionization_Penalty>
2.8626

> <r_epik_Ionization_Penalty_Charging>
1.88551

> <r_epik_Ionization_Penalty_Neutral>
0.977091

> <r_epik_State_Penalty>
2.71174

> <r_epik_Charging_Adjusted_Penalty>
4.59724

> <i_epik_Tot_Q>
2

> <i_epik_Tot_abs_Q>
2

> <s_epik_Chemistry_Notes>
This compound has an imine and may undergo hydrolysis.

> <i_f3d_flags>
0

> <s_lp_Force_Field>
OPLS_2005

> <r_lp_Energy>
10.6185

> <b_lp_Chiralities_Consistent>
1

> <s_lp_Variant>
ZINC18115268-5

$$$$
ZINC31475800
                    3D
 Structure written by MMmdl.
 31 30  0  0  1  0            999 V2000
   -0.7036   -0.9660    1.0106 C   0  0  0  0  0  0
   -0.1483    0.1250    0.0646 C   0  0  2  0  0  0
   -0.6812   -0.0275   -0.8707 H   0  0  0  0  0  0
    1.3169    0.0480   -0.2127 N   0  0  0  0  0  0
    1.8354    0.7511   -1.4192 C   0  0  1  0  0  0
    2.3973    0.0225   -1.9990 H   0  0  0  0  0  0
    0.7918    1.2920   -2.4203 C   0  0  0  0  0  0
    3.1061    2.0658   -1.0107 S   0  0  0  0  0  0
    2.5015    3.3318   -1.4553 O   0  0  0  0  0  0
    3.3206    1.9720    0.4420 O   0  0  0  0  0  0
    4.2730    1.6627   -1.8115 O   0  5  0  0  0  0
    1.9610   -1.2771   -0.0197 C   0  0  2  0  0  0
    1.5874   -1.7042    0.9065 H   0  0  0  0  0  0
    3.4797   -1.1746    0.2178 C   0  0  0  0  0  0
    1.5841   -2.5406   -1.3518 S   0  0  0  0  0  0
    0.3102   -2.1217   -1.9563 O   0  0  0  0  0  0
    2.7349   -2.4714   -2.2665 O   0  0  0  0  0  0
    1.5056   -3.8021   -0.5986 O   0  5  0  0  0  0
   -0.7071    1.7971    0.7165 S   0  0  0  0  0  0
   -1.1614    1.5380    2.0927 O   0  0  0  0  0  0
    0.4640    2.6801    0.6428 O   0  0  0  0  0  0
   -1.7972    2.1644   -0.2014 O   0  5  0  0  0  0
   -0.5897   -1.9691    0.6014 H   0  0  0  0  0  0
   -1.7738   -0.8280    1.1650 H   0  0  0  0  0  0
   -0.2245   -0.9367    1.9897 H   0  0  0  0  0  0
    0.1394    0.5035   -2.7938 H   0  0  0  0  0  0
    1.2930    1.7135   -3.2915 H   0  0  0  0  0  0
    0.1746    2.0824   -1.9978 H   0  0  0  0  0  0
    3.7008   -0.5345    1.0713 H   0  0  0  0  0  0
    4.0194   -0.7872   -0.6450 H   0  0  0  0  0  0
    3.8949   -2.1578    0.4391 H   0  0  0  0  0  0
  1  2  1  0  0  0
  1 23  1  0  0  0
  1 24  1  0  0  0
  1 25  1  0  0  0
  2  3  1  0  0  0
  2  4  1  0  0  0
  2 19  1  0  0  0
  4  5  1  0  0  0
  4 12  1  0  0  0
  5  6  1  0  0  0
  5  7  1  0  0  0
  5  8  1  0  0  0
  7 26  1  0  0  0
  7 27  1  0  0  0
  7 28  1  0  0  0
  8  9  2  0  0  0
  8 10  2  0  0  0
  8 11  1  0  0  0
 12 13  1  0  0  0
 12 14  1  0  0  0
 12 15  1  0  0  0
 14 29  1  0  0  0
 14 30  1  0  0  0
 14 31  1  0  0  0
 15 16  2  0  0  0
 15 17  2  0  0  0
 15 18  1  0  0  0
 19 20  2  0  0  0
 19 21  2  0  0  0
 19 22  1  0  0  0
M  CHG  3  11  -1  18  -1  22  -1
M  END
> <s_m_entry_id>
98

> <s_m_entry_name>
biosynth_p1.0.sdf.91

> <s_m_Source_Path>
/Users/Sebastito/Downloads

> <s_m_Source_File>
biosynth_p1.0.sdf.gz

> <i_m_Source_File_Index>
91

> <chiral flag>
1

> <version>
0

> <i_m_ct_enhanced_stereo_status>
0

> <s_m_source_file>
ligprep_vs.maegz

> <i_m_source_file_index>
91

> <i_lp_mmshare_version>
37011

> <r_epik_Ionization_Penalty>
0.00871926

> <r_epik_Ionization_Penalty_Charging>
2.26e-08

> <r_epik_Ionization_Penalty_Neutral>
0.00871924

> <r_epik_State_Penalty>
0.00658525

> <r_epik_Charging_Adjusted_Penalty>
0.00658527

> <i_epik_Tot_Q>
-3

> <i_epik_Tot_abs_Q>
3

> <i_f3d_flags>
0

> <s_lp_Force_Field>
OPLS_2005

> <r_lp_Energy>
63.0578

> <b_lp_Chiralities_Consistent>
1

> <s_lp_Variant>
ZINC31475800-1

$$$$
ZINC31475800
                    3D
 Structure written by MMmdl.
 32 31  0  0  1  0            999 V2000
   -0.7342   -0.9933    0.9684 C   0  0  0  0  0  0
   -0.1648    0.1272    0.0653 C   0  0  2  0  0  0
   -0.7116    0.0172   -0.8672 H   0  0  0  0  0  0
    1.3250    0.0609   -0.2134 N   0  3  0  0  0  0
    1.8330    0.7515   -1.4591 C   0  0  1  0  0  0
    2.3797    0.0190   -2.0495 H   0  0  0  0  0  0
    0.7736    1.3171   -2.4298 C   0  0  0  0  0  0
    3.1064    2.0548   -1.0489 S   0  0  0  0  0  0
    2.4906    3.3285   -1.4526 O   0  0  0  0  0  0
    3.3355    1.9230    0.3983 O   0  0  0  0  0  0
    4.2608    1.6686   -1.8748 O   0  5  0  0  0  0
    1.9817   -1.2781    0.0145 C   0  0  2  0  0  0
    1.6180   -1.6918    0.9507 H   0  0  0  0  0  0
    3.5017   -1.1759    0.2424 C   0  0  0  0  0  0
    1.5988   -2.5535   -1.2995 S   0  0  0  0  0  0
    0.3767   -2.0808   -1.9671 O   0  0  0  0  0  0
    2.7898   -2.5627   -2.1633 O   0  0  0  0  0  0
    1.4214   -3.7887   -0.5209 O   0  5  0  0  0  0
   -0.6764    1.7768    0.7875 S   0  0  0  0  0  0
   -1.1382    1.4697    2.1506 O   0  0  0  0  0  0
    0.5300    2.6129    0.7495 O   0  0  0  0  0  0
   -1.7495    2.2208   -0.1152 O   0  5  0  0  0  0
   -0.6154   -1.9834    0.5307 H   0  0  0  0  0  0
   -1.8062   -0.8577    1.1138 H   0  0  0  0  0  0
   -0.2714   -0.9963    1.9557 H   0  0  0  0  0  0
    0.1214    0.5368   -2.8209 H   0  0  0  0  0  0
    1.2600    1.7685   -3.2947 H   0  0  0  0  0  0
    0.1581    2.0900   -1.9732 H   0  0  0  0  0  0
    3.7291   -0.5395    1.0970 H   0  0  0  0  0  0
    4.0334   -0.7828   -0.6230 H   0  0  0  0  0  0
    3.9209   -2.1591    0.4569 H   0  0  0  0  0  0
    1.7048    0.6315    0.5304 H   0  0  0  0  0  0
  1  2  1  0  0  0
  1 23  1  0  0  0
  1 24  1  0  0  0
  1 25  1  0  0  0
  2  3  1  0  0  0
  2  4  1  0  0  0
  2 19  1  0  0  0
  4  5  1  0  0  0
  4 12  1  0  0  0
  4 32  1  0  0  0
  5  6  1  0  0  0
  5  7  1  0  0  0
  5  8  1  0  0  0
  7 26  1  0  0  0
  7 27  1  0  0  0
  7 28  1  0  0  0
  8  9  2  0  0  0
  8 10  2  0  0  0
  8 11  1  0  0  0
 12 13  1  0  0  0
 12 14  1  0  0  0
 12 15  1  0  0  0
 14 29  1  0  0  0
 14 30  1  0  0  0
 14 31  1  0  0  0
 15 16  2  0  0  0
 15 17  2  0  0  0
 15 18  1  0  0  0
 19 20  2  0  0  0
 19 21  2  0  0  0
 19 22  1  0  0  0
M  CHG  4   4   1  11  -1  18  -1  22  -1
M  END
> <s_m_entry_id>
98

> <s_m_entry_name>
biosynth_p1.0.sdf.91

> <s_m_Source_Path>
/Users/Sebastito/Downloads

> <s_m_Source_File>
biosynth_p1.0.sdf.gz

> <i_m_Source_File_Index>
91

> <chiral flag>
1

> <version>
0

> <i_m_ct_enhanced_stereo_status>
0

> <s_m_source_file>
ligprep_vs.maegz

> <i_m_source_file_index>
91

> <i_lp_mmshare_version>
37011

> <r_epik_Ionization_Penalty>
2.50393

> <r_epik_Ionization_Penalty_Charging>
2.50393

> <r_epik_Ionization_Penalty_Neutral>
0

> <r_epik_State_Penalty>
2.66918

> <r_epik_Charging_Adjusted_Penalty>
5.17311

> <i_epik_Tot_Q>
-2

> <i_epik_Tot_abs_Q>
4

> <i_f3d_flags>
0

> <s_lp_Force_Field>
OPLS_2005

> <r_lp_Energy>
27.9027

> <b_lp_Chiralities_Consistent>
1

> <s_lp_Variant>
ZINC31475800-2

$$$$
ZINC60184549
                    3D
 Structure written by MMmdl.
 73 75  0  0  1  0            999 V2000
   -2.8763    2.7673   -2.8440 C   0  0  0  0  0  0
   -2.2378    3.3033   -1.5443 C   0  0  2  0  0  0
   -0.6995    3.2425   -1.6193 C   0  0  0  0  0  0
   -0.2569    1.8959   -1.4892 O   0  0  0  0  0  0
   -0.5338    1.3201   -0.2470 C   0  0  1  0  0  0
   -0.1185    1.9595    0.5358 H   0  0  0  0  0  0
   -2.0634    1.1951   -0.0716 C   0  0  1  0  0  0
   -2.2388    0.8327    0.9414 H   0  0  0  0  0  0
   -2.7007    2.6009   -0.2405 C   0  0  2  0  0  0
   -2.3376    3.2101    0.5901 H   0  0  0  0  0  0
   -4.1803    2.5787   -0.1299 N   0  3  0  0  0  0
   -4.7123    2.2850    1.2155 C   0  0  0  0  0  0
   -2.6111    0.2362   -0.9572 O   0  0  0  0  0  0
    0.0375    0.0558   -0.0976 O   0  0  0  0  0  0
    1.4643    0.0327   -0.1524 C   0  0  2  0  0  0
    1.8830    1.0389   -0.2271 H   0  0  0  0  0  0
    1.9080   -0.7941   -1.3841 C   0  0  1  0  0  0
    2.9969   -0.7564   -1.4383 H   0  0  0  0  0  0
    1.4931   -2.2752   -1.2610 C   0  0  0  0  0  0
    2.0579   -2.9070    0.0280 C   0  0  1  0  0  0
    3.1467   -2.8643   -0.0281 H   0  0  0  0  0  0
    1.6148   -2.1257    1.2871 C   0  0  1  0  0  0
    2.1308   -2.5336    2.1593 H   0  0  0  0  0  0
    2.0126   -0.6407    1.1262 C   0  0  2  0  0  0
    3.1005   -0.6196    1.0446 H   0  0  0  0  0  0
    1.7487    0.1159    2.2896 O   0  0  0  0  0  0
    0.1961   -2.2228    1.4151 O   0  0  0  0  0  0
   -0.2350   -2.9299    2.5352 C   0  0  2  0  0  0
    0.2461   -3.9104    2.5290 H   0  0  0  0  0  0
   -1.7682   -3.1063    2.4424 C   0  0  1  0  0  0
   -2.0018   -3.6338    1.5167 H   0  0  0  0  0  0
   -2.2260   -3.9451    3.6475 C   0  0  0  0  0  0
   -1.5704   -3.4599    4.9214 C   0  0  0  0  0  0
   -0.4817   -2.6691    4.9102 C   0  0  0  0  0  0
    0.1243   -2.2888    3.7342 O   0  0  0  0  0  0
    0.2437   -2.1757    6.1473 C   0  0  0  0  0  0
    0.1226   -0.7151    6.2854 N   0  3  0  0  0  0
   -2.4537   -1.8001    2.4041 N   0  3  0  0  0  0
    1.7204   -4.3402    0.1193 N   0  3  0  0  0  0
    1.4275   -0.2056   -2.6481 N   0  3  0  0  0  0
   -2.5926    4.6700   -1.4488 O   0  0  0  0  0  0
   -2.5890    1.7372   -3.0492 H   0  0  0  0  0  0
   -2.5578    3.3570   -3.7047 H   0  0  0  0  0  0
   -3.9652    2.8103   -2.8141 H   0  0  0  0  0  0
   -0.3434    3.6425   -2.5695 H   0  0  0  0  0  0
   -0.2416    3.8502   -0.8364 H   0  0  0  0  0  0
   -5.7997    2.3603    1.2040 H   0  0  0  0  0  0
   -4.3318    2.9969    1.9489 H   0  0  0  0  0  0
   -4.4503    1.2769    1.5363 H   0  0  0  0  0  0
   -3.5441    0.1811   -0.8166 H   0  0  0  0  0  0
    0.4054   -2.3611   -1.2756 H   0  0  0  0  0  0
    1.8556   -2.8292   -2.1282 H   0  0  0  0  0  0
    0.8133    0.1698    2.4067 H   0  0  0  0  0  0
   -3.3108   -3.9087    3.7540 H   0  0  0  0  0  0
   -1.9571   -4.9926    3.5070 H   0  0  0  0  0  0
   -2.0006   -3.7921    5.8555 H   0  0  0  0  0  0
   -0.1600   -2.6556    7.0397 H   0  0  0  0  0  0
    1.2981   -2.4457    6.0807 H   0  0  0  0  0  0
    0.6171   -0.4173    7.1149 H   0  0  0  0  0  0
   -2.2481   -1.2874    3.2492 H   0  0  0  0  0  0
    0.7181   -4.4548    0.1654 H   0  0  0  0  0  0
    0.4173   -0.2004   -2.6581 H   0  0  0  0  0  0
   -2.1016    5.0681   -0.7458 H   0  0  0  0  0  0
    2.1452   -4.7389    0.9449 H   0  0  0  0  0  0
   -4.5135    3.4965   -0.3923 H   0  0  0  0  0  0
   -0.8507   -0.4591    6.3696 H   0  0  0  0  0  0
    1.7691   -0.7477   -3.4293 H   0  0  0  0  0  0
   -3.4508   -1.9487    2.3347 H   0  0  0  0  0  0
    2.0726   -4.8215   -0.6965 H   0  0  0  0  0  0
   -4.5498    1.9109   -0.7916 H   0  0  0  0  0  0
    1.7645    0.7436   -2.7297 H   0  0  0  0  0  0
    0.5276   -0.2629    5.4784 H   0  0  0  0  0  0
   -2.1335   -1.2785    1.6009 H   0  0  0  0  0  0
  1  2  1  0  0  0
  1 42  1  0  0  0
  1 43  1  0  0  0
  1 44  1  0  0  0
  2  9  1  0  0  0
  2  3  1  0  0  0
  2 41  1  0  0  0
  3  4  1  0  0  0
  3 45  1  0  0  0
  3 46  1  0  0  0
  4  5  1  0  0  0
  5  6  1  0  0  0
  5  7  1  0  0  0
  5 14  1  0  0  0
  7  8  1  0  0  0
  7  9  1  0  0  0
  7 13  1  0  0  0
  9 10  1  0  0  0
  9 11  1  0  0  0
 11 12  1  0  0  0
 11 65  1  0  0  0
 11 70  1  0  0  0
 12 47  1  0  0  0
 12 48  1  0  0  0
 12 49  1  0  0  0
 13 50  1  0  0  0
 14 15  1  0  0  0
 15 16  1  0  0  0
 15 24  1  0  0  0
 15 17  1  0  0  0
 17 18  1  0  0  0
 17 19  1  0  0  0
 17 40  1  0  0  0
 19 20  1  0  0  0
 19 51  1  0  0  0
 19 52  1  0  0  0
 20 21  1  0  0  0
 20 22  1  0  0  0
 20 39  1  0  0  0
 22 23  1  0  0  0
 22 24  1  0  0  0
 22 27  1  0  0  0
 24 25  1  0  0  0
 24 26  1  0  0  0
 26 53  1  0  0  0
 27 28  1  0  0  0
 28 29  1  0  0  0
 28 35  1  0  0  0
 28 30  1  0  0  0
 30 31  1  0  0  0
 30 32  1  0  0  0
 30 38  1  0  0  0
 32 33  1  0  0  0
 32 54  1  0  0  0
 32 55  1  0  0  0
 33 34  2  0  0  0
 33 56  1  0  0  0
 34 35  1  0  0  0
 34 36  1  0  0  0
 36 37  1  0  0  0
 36 57  1  0  0  0
 36 58  1  0  0  0
 37 59  1  0  0  0
 37 66  1  0  0  0
 37 72  1  0  0  0
 38 60  1  0  0  0
 38 68  1  0  0  0
 38 73  1  0  0  0
 39 61  1  0  0  0
 39 64  1  0  0  0
 39 69  1  0  0  0
 40 62  1  0  0  0
 40 67  1  0  0  0
 40 71  1  0  0  0
 41 63  1  0  0  0
M  CHG  5  11   1  37   1  38   1  39   1  40   1
M  END
> <s_m_entry_id>
99

> <s_m_entry_name>
biosynth_p1.0.sdf.92

> <s_m_Source_Path>
/Users/Sebastito/Downloads

> <s_m_Source_File>
biosynth_p1.0.sdf.gz

> <i_m_Source_File_Index>
92

> <chiral flag>
1

> <version>
0

> <i_m_ct_enhanced_stereo_status>
0

> <s_m_source_file>
ligprep_vs.maegz

> <i_m_source_file_index>
92

> <i_lp_mmshare_version>
37011

> <r_epik_Ionization_Penalty>
0.793538

> <r_epik_Ionization_Penalty_Charging>
0.79321

> <r_epik_Ionization_Penalty_Neutral>
0.000328124

> <r_epik_State_Penalty>
0.67119

> <r_epik_Charging_Adjusted_Penalty>
1.4644

> <i_epik_Tot_Q>
5

> <i_epik_Tot_abs_Q>
5

> <s_epik_Chemistry_Notes>
This compound contains an acetal/aminal-like group ( X-CH(R)-Y where X, Y are N, S, or O) that may be acid/base labile, releasing an aldehyde.

> <i_f3d_flags>
0

> <s_lp_Force_Field>
OPLS_2005

> <r_lp_Energy>
97.2085

> <b_lp_Chiralities_Consistent>
1

> <s_lp_Variant>
ZINC60184549-1

$$$$
ZINC60184549
                    3D
 Structure written by MMmdl.
 72 74  0  0  1  0            999 V2000
   -2.8566    2.9334   -2.5195 C   0  0  0  0  0  0
   -2.2829    3.2406   -1.1193 C   0  0  2  0  0  0
   -0.7398    3.2388   -1.1407 C   0  0  0  0  0  0
   -0.2466    1.9051   -1.2187 O   0  0  0  0  0  0
   -0.5559    1.1241   -0.1016 C   0  0  1  0  0  0
   -0.2082    1.6392    0.7972 H   0  0  0  0  0  0
   -2.0816    0.9139   -0.0373 C   0  0  1  0  0  0
   -2.2853    0.3669    0.8819 H   0  0  0  0  0  0
   -2.7681    2.3022    0.0185 C   0  0  2  0  0  0
   -2.4623    2.7645    0.9596 H   0  0  0  0  0  0
   -4.2477    2.2075    0.0586 N   0  3  0  0  0  0
   -4.8148    1.6577    1.3059 C   0  0  0  0  0  0
   -2.5438    0.1193   -1.1142 O   0  0  0  0  0  0
    0.0585   -0.1251   -0.1246 O   0  0  0  0  0  0
    1.4830   -0.0914   -0.1036 C   0  0  2  0  0  0
    1.8685    0.9306   -0.1259 H   0  0  0  0  0  0
    1.9884   -0.8470   -1.3533 C   0  0  1  0  0  0
    3.0768   -0.7757   -1.3769 H   0  0  0  0  0  0
    1.6086   -2.3423   -1.3066 C   0  0  0  0  0  0
    2.1344   -3.0197   -0.0228 C   0  0  1  0  0  0
    3.2240   -2.9681   -0.0379 H   0  0  0  0  0  0
    1.6374   -2.3000    1.2518 C   0  0  1  0  0  0
    2.1325   -2.7396    2.1207 H   0  0  0  0  0  0
    2.0055   -0.8012    1.1647 C   0  0  2  0  0  0
    3.0944   -0.7540    1.1160 H   0  0  0  0  0  0
    1.6976   -0.0937    2.3475 O   0  0  0  0  0  0
    0.2214   -2.4563    1.3126 O   0  0  0  0  0  0
   -0.2539   -3.0182    2.4955 C   0  0  2  0  0  0
    0.2875   -3.9516    2.6669 H   0  0  0  0  0  0
   -1.7556   -3.3346    2.3176 C   0  0  1  0  0  0
   -1.8466   -4.0270    1.4800 H   0  0  0  0  0  0
   -2.2435   -4.0430    3.5926 C   0  0  0  0  0  0
   -1.7556   -3.3132    4.8237 C   0  0  0  0  0  0
   -0.7286   -2.4450    4.7792 C   0  0  0  0  0  0
   -0.0364   -2.1976    3.6155 O   0  0  0  0  0  0
   -0.2331   -1.6289    5.9550 C   0  0  0  0  0  0
    1.0392   -2.1700    6.4598 N   0  3  0  0  0  0
   -2.5495   -2.1299    2.0182 N   0  0  0  0  0  0
    1.7947   -4.4549    0.0013 N   0  3  0  0  0  0
    1.5119   -0.2110   -2.5960 N   0  3  0  0  0  0
   -2.6891    4.5545   -0.7862 O   0  0  0  0  0  0
   -2.5213    1.9689   -2.8980 H   0  0  0  0  0  0
   -2.5349    3.6817   -3.2452 H   0  0  0  0  0  0
   -3.9467    2.9326   -2.5247 H   0  0  0  0  0  0
   -0.3647    3.8053   -1.9938 H   0  0  0  0  0  0
   -0.3332    3.7197   -0.2487 H   0  0  0  0  0  0
   -5.9031    1.6976    1.2628 H   0  0  0  0  0  0
   -4.4895    2.2379    2.1699 H   0  0  0  0  0  0
   -4.5237    0.6177    1.4512 H   0  0  0  0  0  0
   -3.4403   -0.1298   -0.9489 H   0  0  0  0  0  0
    0.5246   -2.4528   -1.3686 H   0  0  0  0  0  0
    2.0174   -2.8502   -2.1813 H   0  0  0  0  0  0
    0.7602   -0.1077    2.4684 H   0  0  0  0  0  0
   -3.3326   -4.1014    3.6069 H   0  0  0  0  0  0
   -1.8708   -5.0673    3.6314 H   0  0  0  0  0  0
   -2.2757   -3.5064    5.7508 H   0  0  0  0  0  0
   -0.0899   -0.5930    5.6460 H   0  0  0  0  0  0
   -0.9724   -1.6328    6.7570 H   0  0  0  0  0  0
    1.3524   -1.6149    7.2439 H   0  0  0  0  0  0
   -3.5308   -2.3796    1.8990 H   0  0  0  0  0  0
    0.7906   -4.5652    0.0159 H   0  0  0  0  0  0
    0.5023   -0.2417   -2.6254 H   0  0  0  0  0  0
   -2.3560    5.1501   -1.4409 H   0  0  0  0  0  0
    2.1918   -4.8857    0.8241 H   0  0  0  0  0  0
   -4.6091    3.1449   -0.0502 H   0  0  0  0  0  0
    1.7347   -2.1398    5.7282 H   0  0  0  0  0  0
    1.8869   -0.7004   -3.3960 H   0  0  0  0  0  0
   -2.5094   -1.4823    2.8038 H   0  0  0  0  0  0
    2.1681   -4.9051   -0.8227 H   0  0  0  0  0  0
   -4.5616    1.6542   -0.7258 H   0  0  0  0  0  0
    1.8152    0.7524   -2.6214 H   0  0  0  0  0  0
    0.9055   -3.1255    6.7590 H   0  0  0  0  0  0
  1  2  1  0  0  0
  1 42  1  0  0  0
  1 43  1  0  0  0
  1 44  1  0  0  0
  2  9  1  0  0  0
  2  3  1  0  0  0
  2 41  1  0  0  0
  3  4  1  0  0  0
  3 45  1  0  0  0
  3 46  1  0  0  0
  4  5  1  0  0  0
  5  6  1  0  0  0
  5  7  1  0  0  0
  5 14  1  0  0  0
  7  8  1  0  0  0
  7  9  1  0  0  0
  7 13  1  0  0  0
  9 10  1  0  0  0
  9 11  1  0  0  0
 11 12  1  0  0  0
 11 65  1  0  0  0
 11 70  1  0  0  0
 12 47  1  0  0  0
 12 48  1  0  0  0
 12 49  1  0  0  0
 13 50  1  0  0  0
 14 15  1  0  0  0
 15 16  1  0  0  0
 15 24  1  0  0  0
 15 17  1  0  0  0
 17 18  1  0  0  0
 17 19  1  0  0  0
 17 40  1  0  0  0
 19 20  1  0  0  0
 19 51  1  0  0  0
 19 52  1  0  0  0
 20 21  1  0  0  0
 20 22  1  0  0  0
 20 39  1  0  0  0
 22 23  1  0  0  0
 22 24  1  0  0  0
 22 27  1  0  0  0
 24 25  1  0  0  0
 24 26  1  0  0  0
 26 53  1  0  0  0
 27 28  1  0  0  0
 28 29  1  0  0  0
 28 35  1  0  0  0
 28 30  1  0  0  0
 30 31  1  0  0  0
 30 32  1  0  0  0
 30 38  1  0  0  0
 32 33  1  0  0  0
 32 54  1  0  0  0
 32 55  1  0  0  0
 33 34  2  0  0  0
 33 56  1  0  0  0
 34 35  1  0  0  0
 34 36  1  0  0  0
 36 37  1  0  0  0
 36 57  1  0  0  0
 36 58  1  0  0  0
 37 59  1  0  0  0
 37 66  1  0  0  0
 37 72  1  0  0  0
 38 60  1  0  0  0
 38 68  1  0  0  0
 39 61  1  0  0  0
 39 64  1  0  0  0
 39 69  1  0  0  0
 40 62  1  0  0  0
 40 67  1  0  0  0
 40 71  1  0  0  0
 41 63  1  0  0  0
M  CHG  4  11   1  37   1  39   1  40   1
M  END
> <s_m_entry_id>
99

> <s_m_entry_name>
biosynth_p1.0.sdf.92

> <s_m_Source_Path>
/Users/Sebastito/Downloads

> <s_m_Source_File>
biosynth_p1.0.sdf.gz

> <i_m_Source_File_Index>
92

> <chiral flag>
1

> <version>
0

> <i_m_ct_enhanced_stereo_status>
0

> <s_m_source_file>
ligprep_vs.maegz

> <i_m_source_file_index>
92

> <i_lp_mmshare_version>
37011

> <r_epik_Ionization_Penalty>
0.713919

> <r_epik_Ionization_Penalty_Charging>
0.276887

> <r_epik_Ionization_Penalty_Neutral>
0.437032

> <r_epik_State_Penalty>
0.777653

> <r_epik_Charging_Adjusted_Penalty>
1.05454

> <i_epik_Tot_Q>
4

> <i_epik_Tot_abs_Q>
4

> <s_epik_Chemistry_Notes>
This compound contains an acetal/aminal-like group ( X-CH(R)-Y where X, Y are N, S, or O) that may be acid/base labile, releasing an aldehyde.

> <i_f3d_flags>
0

> <s_lp_Force_Field>
OPLS_2005

> <r_lp_Energy>
76.236

> <b_lp_Chiralities_Consistent>
1

> <s_lp_Variant>
ZINC60184549-2

$$$$
ZINC60184549
                    3D
 Structure written by MMmdl.
 72 74  0  0  1  0            999 V2000
   -2.9831    2.8352   -1.6879 C   0  0  0  0  0  0
   -2.2104    3.0206   -0.3642 C   0  0  2  0  0  0
   -0.6861    3.0183   -0.6066 C   0  0  0  0  0  0
   -0.2253    1.6951   -0.8645 O   0  0  0  0  0  0
   -0.3895    0.8220    0.2137 C   0  0  1  0  0  0
    0.0795    1.2633    1.0958 H   0  0  0  0  0  0
   -1.8948    0.6071    0.4719 C   0  0  1  0  0  0
   -1.9818   -0.0218    1.3562 H   0  0  0  0  0  0
   -2.5394    1.9893    0.7483 C   0  0  2  0  0  0
   -2.0867    2.3667    1.6678 H   0  0  0  0  0  0
   -3.9970    1.9028    1.0085 N   0  3  0  0  0  0
   -4.3747    1.2609    2.2835 C   0  0  0  0  0  0
   -2.5159   -0.0888   -0.5934 O   0  0  0  0  0  0
    0.2098   -0.4153   -0.0006 O   0  0  0  0  0  0
    1.6344   -0.3777   -0.0537 C   0  0  2  0  0  0
    2.0205    0.6439   -0.0220 H   0  0  0  0  0  0
    2.0854   -1.0346   -1.3781 C   0  0  1  0  0  0
    3.1709   -0.9459   -1.4444 H   0  0  0  0  0  0
    1.7313   -2.5374   -1.4278 C   0  0  0  0  0  0
    2.3022   -3.2945   -0.2069 C   0  0  1  0  0  0
    3.3900   -3.2162   -0.2405 H   0  0  0  0  0  0
    1.8124   -2.6784    1.1242 C   0  0  1  0  0  0
    2.3006   -3.2037    1.9470 H   0  0  0  0  0  0
    2.2157   -1.1824    1.1278 C   0  0  2  0  0  0
    3.2992   -1.1620    1.0012 H   0  0  0  0  0  0
    2.0545   -0.5402    2.3734 O   0  0  0  0  0  0
    0.3978   -2.8869    1.1494 O   0  0  0  0  0  0
   -0.2154   -2.8944    2.4025 C   0  0  2  0  0  0
    0.4394   -3.3877    3.1240 H   0  0  0  0  0  0
   -1.5286   -3.6996    2.2763 C   0  0  1  0  0  0
   -1.2886   -4.7035    1.9242 H   0  0  0  0  0  0
   -2.1738   -3.7778    3.6687 C   0  0  0  0  0  0
   -2.1852   -2.4139    4.3186 C   0  0  0  0  0  0
   -1.3833   -1.4175    3.9032 C   0  0  0  0  0  0
   -0.4760   -1.5986    2.8797 O   0  0  0  0  0  0
   -1.3893   -0.0253    4.5119 C   0  0  0  0  0  0
   -0.5462    0.9155    3.7995 N   0  0  0  0  0  0
   -2.4402   -3.0768    1.2960 N   0  3  0  0  0  0
    2.0034   -4.7377   -0.2765 N   0  3  0  0  0  0
    1.5506   -0.3107   -2.5470 N   0  3  0  0  0  0
   -2.5476    4.3009    0.1347 O   0  0  0  0  0  0
   -2.7178    1.9075   -2.1928 H   0  0  0  0  0  0
   -2.7588    3.6434   -2.3852 H   0  0  0  0  0  0
   -4.0625    2.8356   -1.5355 H   0  0  0  0  0  0
   -0.4294    3.6545   -1.4544 H   0  0  0  0  0  0
   -0.1507    3.4225    0.2548 H   0  0  0  0  0  0
   -5.4567    1.3005    2.4092 H   0  0  0  0  0  0
   -3.9180    1.7779    3.1279 H   0  0  0  0  0  0
   -4.0730    0.2141    2.3091 H   0  0  0  0  0  0
   -3.4362   -0.1860   -0.4027 H   0  0  0  0  0  0
    0.6480   -2.6619   -1.4721 H   0  0  0  0  0  0
    2.1253   -2.9744   -2.3465 H   0  0  0  0  0  0
    1.1341   -0.5269    2.5894 H   0  0  0  0  0  0
   -3.1925   -4.1616    3.6001 H   0  0  0  0  0  0
   -1.6189   -4.4596    4.3142 H   0  0  0  0  0  0
   -2.8671   -2.2630    5.1431 H   0  0  0  0  0  0
   -2.4114    0.3532    4.5211 H   0  0  0  0  0  0
   -1.0568   -0.0844    5.5486 H   0  0  0  0  0  0
   -0.6375    1.8275    4.2260 H   0  0  0  0  0  0
   -2.6746   -2.1446    1.6042 H   0  0  0  0  0  0
    1.0044   -4.8823   -0.2482 H   0  0  0  0  0  0
    0.5410   -0.3452   -2.5375 H   0  0  0  0  0  0
   -2.3042    4.9510   -0.5078 H   0  0  0  0  0  0
    2.4331   -5.2111    0.5060 H   0  0  0  0  0  0
   -4.3508    2.8493    1.0328 H   0  0  0  0  0  0
    0.4214    0.6522    3.9248 H   0  0  0  0  0  0
    1.8939   -0.7345   -3.3974 H   0  0  0  0  0  0
   -3.2829   -3.6292    1.2218 H   0  0  0  0  0  0
    2.3723   -5.1186   -1.1366 H   0  0  0  0  0  0
   -4.4419    1.4201    0.2414 H   0  0  0  0  0  0
    1.8498    0.6538   -2.5125 H   0  0  0  0  0  0
   -1.9868   -3.0301    0.3948 H   0  0  0  0  0  0
  1  2  1  0  0  0
  1 42  1  0  0  0
  1 43  1  0  0  0
  1 44  1  0  0  0
  2  9  1  0  0  0
  2  3  1  0  0  0
  2 41  1  0  0  0
  3  4  1  0  0  0
  3 45  1  0  0  0
  3 46  1  0  0  0
  4  5  1  0  0  0
  5  6  1  0  0  0
  5  7  1  0  0  0
  5 14  1  0  0  0
  7  8  1  0  0  0
  7  9  1  0  0  0
  7 13  1  0  0  0
  9 10  1  0  0  0
  9 11  1  0  0  0
 11 12  1  0  0  0
 11 65  1  0  0  0
 11 70  1  0  0  0
 12 47  1  0  0  0
 12 48  1  0  0  0
 12 49  1  0  0  0
 13 50  1  0  0  0
 14 15  1  0  0  0
 15 16  1  0  0  0
 15 24  1  0  0  0
 15 17  1  0  0  0
 17 18  1  0  0  0
 17 19  1  0  0  0
 17 40  1  0  0  0
 19 20  1  0  0  0
 19 51  1  0  0  0
 19 52  1  0  0  0
 20 21  1  0  0  0
 20 22  1  0  0  0
 20 39  1  0  0  0
 22 23  1  0  0  0
 22 24  1  0  0  0
 22 27  1  0  0  0
 24 25  1  0  0  0
 24 26  1  0  0  0
 26 53  1  0  0  0
 27 28  1  0  0  0
 28 29  1  0  0  0
 28 35  1  0  0  0
 28 30  1  0  0  0
 30 31  1  0  0  0
 30 32  1  0  0  0
 30 38  1  0  0  0
 32 33  1  0  0  0
 32 54  1  0  0  0
 32 55  1  0  0  0
 33 34  2  0  0  0
 33 56  1  0  0  0
 34 35  1  0  0  0
 34 36  1  0  0  0
 36 37  1  0  0  0
 36 57  1  0  0  0
 36 58  1  0  0  0
 37 59  1  0  0  0
 37 66  1  0  0  0
 38 60  1  0  0  0
 38 68  1  0  0  0
 38 72  1  0  0  0
 39 61  1  0  0  0
 39 64  1  0  0  0
 39 69  1  0  0  0
 40 62  1  0  0  0
 40 67  1  0  0  0
 40 71  1  0  0  0
 41 63  1  0  0  0
M  CHG  4  11   1  38   1  39   1  40   1
M  END
> <s_m_entry_id>
99

> <s_m_entry_name>
biosynth_p1.0.sdf.92

> <s_m_Source_Path>
/Users/Sebastito/Downloads

> <s_m_Source_File>
biosynth_p1.0.sdf.gz

> <i_m_Source_File_Index>
92

> <chiral flag>
1

> <version>
0

> <i_m_ct_enhanced_stereo_status>
0

> <s_m_source_file>
ligprep_vs.maegz

> <i_m_source_file_index>
92

> <i_lp_mmshare_version>
37011

> <r_epik_Ionization_Penalty>
1.02815

> <r_epik_Ionization_Penalty_Charging>
0.339125

> <r_epik_Ionization_Penalty_Neutral>
0.68902

> <r_epik_State_Penalty>
1.12491

> <r_epik_Charging_Adjusted_Penalty>
1.46403

> <i_epik_Tot_Q>
4

> <i_epik_Tot_abs_Q>
4

> <s_epik_Chemistry_Notes>
This compound contains an acetal/aminal-like group ( X-CH(R)-Y where X, Y are N, S, or O) that may be acid/base labile, releasing an aldehyde.

> <i_f3d_flags>
0

> <s_lp_Force_Field>
OPLS_2005

> <r_lp_Energy>
73.8037

> <b_lp_Chiralities_Consistent>
1

> <s_lp_Variant>
ZINC60184549-3

$$$$
ZINC60184549
                    3D
 Structure written by MMmdl.
 71 73  0  0  1  0            999 V2000
   -3.1574    2.6397   -1.9841 C   0  0  0  0  0  0
   -2.6746    2.7085   -0.5188 C   0  0  2  0  0  0
   -1.1508    2.9426   -0.4503 C   0  0  0  0  0  0
   -0.4491    1.7519   -0.7949 O   0  0  0  0  0  0
   -0.6559    0.6956    0.0963 C   0  0  1  0  0  0
   -0.4087    1.0300    1.1067 H   0  0  0  0  0  0
   -2.1328    0.2574    0.0331 C   0  0  1  0  0  0
   -2.2739   -0.5068    0.7938 H   0  0  0  0  0  0
   -3.0304    1.4770    0.3555 C   0  0  2  0  0  0
   -2.8267    1.7563    1.3915 H   0  0  0  0  0  0
   -4.4731    1.1434    0.2775 N   0  3  0  0  0  0
   -4.9870    0.3039    1.3776 C   0  0  0  0  0  0
   -2.4544   -0.3349   -1.2108 O   0  0  0  0  0  0
    0.1419   -0.4069   -0.1912 O   0  0  0  0  0  0
    1.5388   -0.1983    0.0011 C   0  0  2  0  0  0
    1.7843    0.8620    0.0932 H   0  0  0  0  0  0
    2.2652   -0.7646   -1.2388 C   0  0  1  0  0  0
    3.3293   -0.5473   -1.1365 H   0  0  0  0  0  0
    2.1021   -2.2967   -1.3533 C   0  0  0  0  0  0
    2.5503   -3.0205   -0.0621 C   0  0  1  0  0  0
    3.6164   -2.8360    0.0773 H   0  0  0  0  0  0
    1.7972   -2.4894    1.1799 C   0  0  1  0  0  0
    2.2028   -2.9771    2.0682 H   0  0  0  0  0  0
    2.0257   -0.9574    1.2540 C   0  0  2  0  0  0
    3.1072   -0.8171    1.2871 H   0  0  0  0  0  0
    1.6222   -0.3541    2.4650 O   0  0  0  0  0  0
    0.4333   -2.8580    0.9721 O   0  0  0  0  0  0
   -0.3776   -2.9444    2.1020 C   0  0  2  0  0  0
    0.1892   -3.4111    2.9102 H   0  0  0  0  0  0
   -1.5839   -3.8436    1.7513 C   0  0  1  0  0  0
   -1.1894   -4.8231    1.4788 H   0  0  0  0  0  0
   -2.4438   -4.0029    3.0159 C   0  0  0  0  0  0
   -2.6421   -2.6706    3.7018 C   0  0  0  0  0  0
   -1.8566   -1.6070    3.4418 C   0  0  0  0  0  0
   -0.8049   -1.6908    2.5607 O   0  0  0  0  0  0
   -1.9937   -0.2127    4.0303 C   0  0  0  0  0  0
   -3.2825    0.0281    4.6509 N   0  0  0  0  0  0
   -2.3602   -3.3223    0.6118 N   0  0  0  0  0  0
    2.4031   -4.4830   -0.1915 N   0  3  0  0  0  0
    1.8265   -0.0801   -2.4698 N   0  3  0  0  0  0
   -3.2920    3.8415    0.0631 O   0  0  0  0  0  0
   -2.6626    1.8469   -2.5428 H   0  0  0  0  0  0
   -2.9418    3.5713   -2.5088 H   0  0  0  0  0  0
   -4.2330    2.4758   -2.0545 H   0  0  0  0  0  0
   -0.8527    3.7394   -1.1328 H   0  0  0  0  0  0
   -0.8463    3.2618    0.5484 H   0  0  0  0  0  0
   -6.0547    0.1324    1.2416 H   0  0  0  0  0  0
   -4.8445    0.7989    2.3380 H   0  0  0  0  0  0
   -4.4920   -0.6667    1.4061 H   0  0  0  0  0  0
   -1.9144   -1.1026   -1.3247 H   0  0  0  0  0  0
    1.0619   -2.5420   -1.5743 H   0  0  0  0  0  0
    2.6862   -2.6629   -2.1988 H   0  0  0  0  0  0
    2.0706   -0.7778    3.1813 H   0  0  0  0  0  0
   -3.4133   -4.4375    2.7696 H   0  0  0  0  0  0
   -1.9629   -4.6801    3.7224 H   0  0  0  0  0  0
   -3.4515   -2.6093    4.4145 H   0  0  0  0  0  0
   -1.2092   -0.0622    4.7723 H   0  0  0  0  0  0
   -1.8379    0.5240    3.2427 H   0  0  0  0  0  0
   -4.0280   -0.1391    3.9910 H   0  0  0  0  0  0
   -3.1343   -3.9504    0.3978 H   0  0  0  0  0  0
    1.4274   -4.7136   -0.3174 H   0  0  0  0  0  0
    0.8391   -0.2397   -2.6122 H   0  0  0  0  0  0
   -2.9254    3.9819    0.9232 H   0  0  0  0  0  0
    2.7479   -4.9354    0.6433 H   0  0  0  0  0  0
   -4.9876    2.0130    0.2916 H   0  0  0  0  0  0
   -3.4198   -0.6105    5.4219 H   0  0  0  0  0  0
    2.3428   -0.4363   -3.2619 H   0  0  0  0  0  0
   -2.7751   -2.4237    0.8529 H   0  0  0  0  0  0
    2.9297   -4.8090   -0.9896 H   0  0  0  0  0  0
   -4.6485    0.6833   -0.6047 H   0  0  0  0  0  0
    1.9926    0.9127   -2.3819 H   0  0  0  0  0  0
  1  2  1  0  0  0
  1 42  1  0  0  0
  1 43  1  0  0  0
  1 44  1  0  0  0
  2  9  1  0  0  0
  2  3  1  0  0  0
  2 41  1  0  0  0
  3  4  1  0  0  0
  3 45  1  0  0  0
  3 46  1  0  0  0
  4  5  1  0  0  0
  5  6  1  0  0  0
  5  7  1  0  0  0
  5 14  1  0  0  0
  7  8  1  0  0  0
  7  9  1  0  0  0
  7 13  1  0  0  0
  9 10  1  0  0  0
  9 11  1  0  0  0
 11 12  1  0  0  0
 11 65  1  0  0  0
 11 70  1  0  0  0
 12 47  1  0  0  0
 12 48  1  0  0  0
 12 49  1  0  0  0
 13 50  1  0  0  0
 14 15  1  0  0  0
 15 16  1  0  0  0
 15 24  1  0  0  0
 15 17  1  0  0  0
 17 18  1  0  0  0
 17 19  1  0  0  0
 17 40  1  0  0  0
 19 20  1  0  0  0
 19 51  1  0  0  0
 19 52  1  0  0  0
 20 21  1  0  0  0
 20 22  1  0  0  0
 20 39  1  0  0  0
 22 23  1  0  0  0
 22 24  1  0  0  0
 22 27  1  0  0  0
 24 25  1  0  0  0
 24 26  1  0  0  0
 26 53  1  0  0  0
 27 28  1  0  0  0
 28 29  1  0  0  0
 28 35  1  0  0  0
 28 30  1  0  0  0
 30 31  1  0  0  0
 30 32  1  0  0  0
 30 38  1  0  0  0
 32 33  1  0  0  0
 32 54  1  0  0  0
 32 55  1  0  0  0
 33 34  2  0  0  0
 33 56  1  0  0  0
 34 35  1  0  0  0
 34 36  1  0  0  0
 36 37  1  0  0  0
 36 57  1  0  0  0
 36 58  1  0  0  0
 37 59  1  0  0  0
 37 66  1  0  0  0
 38 60  1  0  0  0
 38 68  1  0  0  0
 39 61  1  0  0  0
 39 64  1  0  0  0
 39 69  1  0  0  0
 40 62  1  0  0  0
 40 67  1  0  0  0
 40 71  1  0  0  0
 41 63  1  0  0  0
M  CHG  3  11   1  39   1  40   1
M  END
> <s_m_entry_id>
99

> <s_m_entry_name>
biosynth_p1.0.sdf.92

> <s_m_Source_Path>
/Users/Sebastito/Downloads

> <s_m_Source_File>
biosynth_p1.0.sdf.gz

> <i_m_Source_File_Index>
92

> <chiral flag>
1

> <version>
0

> <i_m_ct_enhanced_stereo_status>
0

> <s_m_source_file>
ligprep_vs.maegz

> <i_m_source_file_index>
92

> <i_lp_mmshare_version>
37011

> <r_epik_Ionization_Penalty>
2.07721

> <r_epik_Ionization_Penalty_Charging>
0.163818

> <r_epik_Ionization_Penalty_Neutral>
1.91339

> <r_epik_State_Penalty>
1.83326

> <r_epik_Charging_Adjusted_Penalty>
1.99708

> <i_epik_Tot_Q>
3

> <i_epik_Tot_abs_Q>
3

> <s_epik_Chemistry_Notes>
This compound contains an acetal/aminal-like group ( X-CH(R)-Y where X, Y are N, S, or O) that may be acid/base labile, releasing an aldehyde.

> <i_f3d_flags>
0

> <s_lp_Force_Field>
OPLS_2005

> <r_lp_Energy>
65.5681

> <b_lp_Chiralities_Consistent>
1

> <s_lp_Variant>
ZINC60184549-4

$$$$
ZINC60184549
                    3D
 Structure written by MMmdl.
 72 74  0  0  1  0            999 V2000
   -2.9160    2.5757   -2.6288 C   0  0  0  0  0  0
   -2.5292    2.8922   -1.1679 C   0  0  2  0  0  0
   -1.0004    3.0266   -1.0157 C   0  0  0  0  0  0
   -0.3849    1.7439   -1.0666 O   0  0  0  0  0  0
   -0.7437    0.9009   -0.0120 C   0  0  1  0  0  0
   -0.5511    1.4159    0.9327 H   0  0  0  0  0  0
   -2.2446    0.5570   -0.1177 C   0  0  1  0  0  0
   -2.4977   -0.0333    0.7631 H   0  0  0  0  0  0
   -3.0499    1.8834   -0.1094 C   0  0  2  0  0  0
   -2.8839    2.3413    0.8683 H   0  0  0  0  0  0
   -4.5141    1.6745   -0.2272 N   0  3  0  0  0  0
   -5.1583    1.0234    0.9307 C   0  0  0  0  0  0
   -2.5201   -0.2433   -1.2524 O   0  0  0  0  0  0
   -0.0080   -0.2818    0.0016 O   0  0  0  0  0  0
    1.3796   -0.1068    0.2880 C   0  0  2  0  0  0
    1.6382    0.9465    0.4190 H   0  0  0  0  0  0
    2.2114   -0.6745   -0.8860 C   0  0  1  0  0  0
    3.2622   -0.4619   -0.6842 H   0  0  0  0  0  0
    2.0601   -2.2041   -1.0204 C   0  0  0  0  0  0
    2.4195   -2.9194    0.2993 C   0  0  1  0  0  0
    3.4524   -2.6530    0.5281 H   0  0  0  0  0  0
    1.5525   -2.4067    1.4688 C   0  0  1  0  0  0
    1.8893   -2.8836    2.3916 H   0  0  0  0  0  0
    1.7330   -0.8743    1.5801 C   0  0  2  0  0  0
    2.7953   -0.7017    1.7601 H   0  0  0  0  0  0
    1.1165   -0.3211    2.7242 O   0  0  0  0  0  0
    0.2052   -2.7458    1.1407 O   0  0  0  0  0  0
   -0.5437   -3.2869    2.1810 C   0  0  2  0  0  0
    0.0546   -4.0378    2.7020 H   0  0  0  0  0  0
   -1.7829   -3.9765    1.5673 C   0  0  1  0  0  0
   -1.4405   -4.7587    0.8884 H   0  0  0  0  0  0
   -2.6009   -4.6018    2.7096 C   0  0  0  0  0  0
   -2.7570   -3.6232    3.8512 C   0  0  0  0  0  0
   -1.9495   -2.5564    3.9904 C   0  0  0  0  0  0
   -0.9178   -2.3076    3.1156 O   0  0  0  0  0  0
   -2.0569   -1.5215    5.0912 C   0  0  0  0  0  0
   -0.8967   -1.6116    5.9940 N   0  3  0  0  0  0
   -2.5892   -3.0228    0.7825 N   0  3  0  0  0  0
    2.3724   -4.3849    0.1800 N   0  0  0  0  0  0
    1.8987    0.0096   -2.1540 N   0  3  0  0  0  0
   -3.0859    4.1548   -0.8569 O   0  0  0  0  0  0
   -2.4575    1.6545   -2.9850 H   0  0  0  0  0  0
   -2.5831    3.3686   -3.2997 H   0  0  0  0  0  0
   -3.9947    2.4831   -2.7564 H   0  0  0  0  0  0
   -0.5872    3.6495   -1.8098 H   0  0  0  0  0  0
   -0.7391    3.5136   -0.0740 H   0  0  0  0  0  0
   -6.2378    0.9955    0.7819 H   0  0  0  0  0  0
   -4.9580    1.5758    1.8492 H   0  0  0  0  0  0
   -4.8109   -0.0020    1.0543 H   0  0  0  0  0  0
   -3.4458   -0.4306   -1.2817 H   0  0  0  0  0  0
    1.0420   -2.4563   -1.3210 H   0  0  0  0  0  0
    2.7112   -2.5644   -1.8181 H   0  0  0  0  0  0
    0.1857   -0.4669    2.6584 H   0  0  0  0  0  0
   -3.5836   -4.9132    2.3535 H   0  0  0  0  0  0
   -2.1044   -5.4943    3.0922 H   0  0  0  0  0  0
   -3.5439   -3.8178    4.5657 H   0  0  0  0  0  0
   -2.0974   -0.5246    4.6514 H   0  0  0  0  0  0
   -2.9737   -1.6677    5.6630 H   0  0  0  0  0  0
   -0.9815   -0.9195    6.7251 H   0  0  0  0  0  0
   -2.9227   -2.2868    1.3872 H   0  0  0  0  0  0
    2.9869   -4.7038   -0.5683 H   0  0  0  0  0  0
    0.9305   -0.1495   -2.3943 H   0  0  0  0  0  0
   -2.7362    4.7965   -1.4574 H   0  0  0  0  0  0
    2.6997   -4.8257    1.0389 H   0  0  0  0  0  0
   -4.9354    2.5876   -0.3309 H   0  0  0  0  0  0
   -0.0472   -1.4454    5.4733 H   0  0  0  0  0  0
    2.4913   -0.3509   -2.8885 H   0  0  0  0  0  0
   -3.3745   -3.5080    0.3720 H   0  0  0  0  0  0
    2.0591    1.0017   -2.0518 H   0  0  0  0  0  0
   -4.7070    1.1436   -1.0643 H   0  0  0  0  0  0
   -0.8611   -2.5319    6.4090 H   0  0  0  0  0  0
   -2.0161   -2.6289    0.0494 H   0  0  0  0  0  0
  1  2  1  0  0  0
  1 42  1  0  0  0
  1 43  1  0  0  0
  1 44  1  0  0  0
  2  9  1  0  0  0
  2  3  1  0  0  0
  2 41  1  0  0  0
  3  4  1  0  0  0
  3 45  1  0  0  0
  3 46  1  0  0  0
  4  5  1  0  0  0
  5  6  1  0  0  0
  5  7  1  0  0  0
  5 14  1  0  0  0
  7  8  1  0  0  0
  7  9  1  0  0  0
  7 13  1  0  0  0
  9 10  1  0  0  0
  9 11  1  0  0  0
 11 12  1  0  0  0
 11 65  1  0  0  0
 11 70  1  0  0  0
 12 47  1  0  0  0
 12 48  1  0  0  0
 12 49  1  0  0  0
 13 50  1  0  0  0
 14 15  1  0  0  0
 15 16  1  0  0  0
 15 24  1  0  0  0
 15 17  1  0  0  0
 17 18  1  0  0  0
 17 19  1  0  0  0
 17 40  1  0  0  0
 19 20  1  0  0  0
 19 51  1  0  0  0
 19 52  1  0  0  0
 20 21  1  0  0  0
 20 22  1  0  0  0
 20 39  1  0  0  0
 22 23  1  0  0  0
 22 24  1  0  0  0
 22 27  1  0  0  0
 24 25  1  0  0  0
 24 26  1  0  0  0
 26 53  1  0  0  0
 27 28  1  0  0  0
 28 29  1  0  0  0
 28 35  1  0  0  0
 28 30  1  0  0  0
 30 31  1  0  0  0
 30 32  1  0  0  0
 30 38  1  0  0  0
 32 33  1  0  0  0
 32 54  1  0  0  0
 32 55  1  0  0  0
 33 34  2  0  0  0
 33 56  1  0  0  0
 34 35  1  0  0  0
 34 36  1  0  0  0
 36 37  1  0  0  0
 36 57  1  0  0  0
 36 58  1  0  0  0
 37 59  1  0  0  0
 37 66  1  0  0  0
 37 71  1  0  0  0
 38 60  1  0  0  0
 38 68  1  0  0  0
 38 72  1  0  0  0
 39 61  1  0  0  0
 39 64  1  0  0  0
 40 62  1  0  0  0
 40 67  1  0  0  0
 40 69  1  0  0  0
 41 63  1  0  0  0
M  CHG  4  11   1  37   1  38   1  40   1
M  END
> <s_m_entry_id>
99

> <s_m_entry_name>
biosynth_p1.0.sdf.92

> <s_m_Source_Path>
/Users/Sebastito/Downloads

> <s_m_Source_File>
biosynth_p1.0.sdf.gz

> <i_m_Source_File_Index>
92

> <chiral flag>
1

> <version>
0

> <i_m_ct_enhanced_stereo_status>
0

> <s_m_source_file>
ligprep_vs.maegz

> <i_m_source_file_index>
92

> <i_lp_mmshare_version>
37011

> <r_epik_Ionization_Penalty>
1.85001

> <r_epik_Ionization_Penalty_Charging>
0.58264

> <r_epik_Ionization_Penalty_Neutral>
1.26737

> <r_epik_State_Penalty>
1.93692

> <r_epik_Charging_Adjusted_Penalty>
2.51956

> <i_epik_Tot_Q>
4

> <i_epik_Tot_abs_Q>
4

> <s_epik_Chemistry_Notes>
This compound contains an acetal/aminal-like group ( X-CH(R)-Y where X, Y are N, S, or O) that may be acid/base labile, releasing an aldehyde.

> <i_f3d_flags>
0

> <s_lp_Force_Field>
OPLS_2005

> <r_lp_Energy>
74.0784

> <b_lp_Chiralities_Consistent>
1

> <s_lp_Variant>
ZINC60184549-5

$$$$
ZINC60184549
                    3D
 Structure written by MMmdl.
 72 74  0  0  1  0            999 V2000
   -2.8964    2.5842   -2.1430 C   0  0  0  0  0  0
   -2.5188    2.7510   -0.6553 C   0  0  2  0  0  0
   -0.9941    2.9101   -0.4870 C   0  0  0  0  0  0
   -0.3472    1.6564   -0.6748 O   0  0  0  0  0  0
   -0.6763    0.6976    0.2856 C   0  0  1  0  0  0
   -0.4913    1.1155    1.2781 H   0  0  0  0  0  0
   -2.1668    0.3249    0.1392 C   0  0  1  0  0  0
   -2.4054   -0.3626    0.9493 H   0  0  0  0  0  0
   -3.0098    1.6182    0.2857 C   0  0  2  0  0  0
   -2.8600    1.9724    1.3079 H   0  0  0  0  0  0
   -4.4658    1.3762    0.1378 N   0  3  0  0  0  0
   -5.0898    0.5828    1.2154 C   0  0  0  0  0  0
   -2.4205   -0.3598   -1.0736 O   0  0  0  0  0  0
    0.0894   -0.4612    0.1815 O   0  0  0  0  0  0
    1.4874   -0.2679    0.3970 C   0  0  2  0  0  0
    1.7315    0.7721    0.6251 H   0  0  0  0  0  0
    2.2518   -0.6985   -0.8770 C   0  0  1  0  0  0
    3.3118   -0.5485   -0.6680 H   0  0  0  0  0  0
    2.0804   -2.2039   -1.1689 C   0  0  0  0  0  0
    2.5079   -3.0633    0.0422 C   0  0  1  0  0  0
    3.5679   -2.8818    0.2268 H   0  0  0  0  0  0
    1.7203   -2.6784    1.3163 C   0  0  1  0  0  0
    2.1054   -3.2624    2.1541 H   0  0  0  0  0  0
    1.9457   -1.1637    1.5671 C   0  0  2  0  0  0
    3.0253   -1.0281    1.6491 H   0  0  0  0  0  0
    1.4963   -0.7049    2.8241 O   0  0  0  0  0  0
    0.3590   -3.0230    1.0426 O   0  0  0  0  0  0
   -0.4895   -3.1769    2.1379 C   0  0  2  0  0  0
    0.0463   -3.6939    2.9368 H   0  0  0  0  0  0
   -1.6892   -4.0399    1.6831 C   0  0  1  0  0  0
   -1.3107   -5.0006    1.3319 H   0  0  0  0  0  0
   -2.6126   -4.2582    2.8939 C   0  0  0  0  0  0
   -2.8420   -2.9585    3.6313 C   0  0  0  0  0  0
   -2.0290   -1.8987    3.4742 C   0  0  0  0  0  0
   -0.9327   -1.9437    2.6448 O   0  0  0  0  0  0
   -2.2112   -0.5540    4.1489 C   0  0  0  0  0  0
   -1.2413   -0.3936    5.2457 N   0  3  0  0  0  0
   -2.4076   -3.4012    0.5624 N   0  3  0  0  0  0
    2.3947   -4.5036   -0.2546 N   0  3  0  0  0  0
    1.9303    0.1449   -2.0374 N   0  0  0  0  0  0
   -3.1110    3.9565   -0.2100 O   0  0  0  0  0  0
   -2.4128    1.7193   -2.5949 H   0  0  0  0  0  0
   -2.5835    3.4534   -2.7232 H   0  0  0  0  0  0
   -3.9721    2.4775   -2.2840 H   0  0  0  0  0  0
   -0.5984    3.6247   -1.2099 H   0  0  0  0  0  0
   -0.7436    3.3004    0.5014 H   0  0  0  0  0  0
   -6.1673    0.5337    1.0589 H   0  0  0  0  0  0
   -4.9103    1.0395    2.1891 H   0  0  0  0  0  0
   -4.7076   -0.4377    1.2314 H   0  0  0  0  0  0
   -3.3455   -0.5397   -1.1412 H   0  0  0  0  0  0
    1.0443   -2.4159   -1.4380 H   0  0  0  0  0  0
    2.6822   -2.4747   -2.0377 H   0  0  0  0  0  0
    0.5540   -0.7662    2.8372 H   0  0  0  0  0  0
   -3.5693   -4.6757    2.5776 H   0  0  0  0  0  0
   -2.1703   -4.9716    3.5903 H   0  0  0  0  0  0
   -3.6871   -2.9123    4.3032 H   0  0  0  0  0  0
   -2.0682    0.2444    3.4202 H   0  0  0  0  0  0
   -3.2240   -0.4613    4.5424 H   0  0  0  0  0  0
   -1.3724    0.5067    5.6849 H   0  0  0  0  0  0
   -2.7706   -2.5075    0.8589 H   0  0  0  0  0  0
    1.4313   -4.7376   -0.4457 H   0  0  0  0  0  0
    2.4327   -0.1741   -2.8649 H   0  0  0  0  0  0
   -2.7760    4.6692   -0.7342 H   0  0  0  0  0  0
    2.7231   -5.0411    0.5352 H   0  0  0  0  0  0
   -4.9171    2.2807    0.1269 H   0  0  0  0  0  0
   -0.3001   -0.4532    4.8838 H   0  0  0  0  0  0
    0.9360    0.0949   -2.2554 H   0  0  0  0  0  0
   -3.1700   -3.9956    0.2685 H   0  0  0  0  0  0
    2.9585   -4.7240   -1.0636 H   0  0  0  0  0  0
   -4.6360    0.9306   -0.7524 H   0  0  0  0  0  0
   -1.3820   -1.1208    5.9328 H   0  0  0  0  0  0
   -1.7715   -3.2649   -0.2108 H   0  0  0  0  0  0
  1  2  1  0  0  0
  1 42  1  0  0  0
  1 43  1  0  0  0
  1 44  1  0  0  0
  2  9  1  0  0  0
  2  3  1  0  0  0
  2 41  1  0  0  0
  3  4  1  0  0  0
  3 45  1  0  0  0
  3 46  1  0  0  0
  4  5  1  0  0  0
  5  6  1  0  0  0
  5  7  1  0  0  0
  5 14  1  0  0  0
  7  8  1  0  0  0
  7  9  1  0  0  0
  7 13  1  0  0  0
  9 10  1  0  0  0
  9 11  1  0  0  0
 11 12  1  0  0  0
 11 65  1  0  0  0
 11 70  1  0  0  0
 12 47  1  0  0  0
 12 48  1  0  0  0
 12 49  1  0  0  0
 13 50  1  0  0  0
 14 15  1  0  0  0
 15 16  1  0  0  0
 15 24  1  0  0  0
 15 17  1  0  0  0
 17 18  1  0  0  0
 17 19  1  0  0  0
 17 40  1  0  0  0
 19 20  1  0  0  0
 19 51  1  0  0  0
 19 52  1  0  0  0
 20 21  1  0  0  0
 20 22  1  0  0  0
 20 39  1  0  0  0
 22 23  1  0  0  0
 22 24  1  0  0  0
 22 27  1  0  0  0
 24 25  1  0  0  0
 24 26  1  0  0  0
 26 53  1  0  0  0
 27 28  1  0  0  0
 28 29  1  0  0  0
 28 35  1  0  0  0
 28 30  1  0  0  0
 30 31  1  0  0  0
 30 32  1  0  0  0
 30 38  1  0  0  0
 32 33  1  0  0  0
 32 54  1  0  0  0
 32 55  1  0  0  0
 33 34  2  0  0  0
 33 56  1  0  0  0
 34 35  1  0  0  0
 34 36  1  0  0  0
 36 37  1  0  0  0
 36 57  1  0  0  0
 36 58  1  0  0  0
 37 59  1  0  0  0
 37 66  1  0  0  0
 37 71  1  0  0  0
 38 60  1  0  0  0
 38 68  1  0  0  0
 38 72  1  0  0  0
 39 61  1  0  0  0
 39 64  1  0  0  0
 39 69  1  0  0  0
 40 62  1  0  0  0
 40 67  1  0  0  0
 41 63  1  0  0  0
M  CHG  4  11   1  37   1  38   1  39   1
M  END
> <s_m_entry_id>
99

> <s_m_entry_name>
biosynth_p1.0.sdf.92

> <s_m_Source_Path>
/Users/Sebastito/Downloads

> <s_m_Source_File>
biosynth_p1.0.sdf.gz

> <i_m_Source_File_Index>
92

> <chiral flag>
1

> <version>
0

> <i_m_ct_enhanced_stereo_status>
0

> <s_m_source_file>
ligprep_vs.maegz

> <i_m_source_file_index>
92

> <i_lp_mmshare_version>
37011

> <r_epik_Ionization_Penalty>
1.95127

> <r_epik_Ionization_Penalty_Charging>
0.631188

> <r_epik_Ionization_Penalty_Neutral>
1.32008

> <r_epik_State_Penalty>
2.00464

> <r_epik_Charging_Adjusted_Penalty>
2.63583

> <i_epik_Tot_Q>
4

> <i_epik_Tot_abs_Q>
4

> <s_epik_Chemistry_Notes>
This compound contains an acetal/aminal-like group ( X-CH(R)-Y where X, Y are N, S, or O) that may be acid/base labile, releasing an aldehyde.

> <i_f3d_flags>
0

> <s_lp_Force_Field>
OPLS_2005

> <r_lp_Energy>
79.2157

> <b_lp_Chiralities_Consistent>
1

> <s_lp_Variant>
ZINC60184549-6

$$$$
ZINC60184549
                    3D
 Structure written by MMmdl.
 71 73  0  0  1  0            999 V2000
   -2.9890    2.8358   -2.3971 C   0  0  0  0  0  0
   -2.4070    3.1983   -1.0135 C   0  0  2  0  0  0
   -0.8656    3.2436   -1.0598 C   0  0  0  0  0  0
   -0.3340    1.9245   -1.1171 O   0  0  0  0  0  0
   -0.5994    1.1556    0.0185 C   0  0  1  0  0  0
   -0.2465    1.6955    0.9003 H   0  0  0  0  0  0
   -2.1163    0.9091    0.1250 C   0  0  1  0  0  0
   -2.2829    0.3853    1.0649 H   0  0  0  0  0  0
   -2.8462    2.2747    0.1549 C   0  0  2  0  0  0
   -2.5479    2.7715    1.0805 H   0  0  0  0  0  0
   -4.3203    2.1211    0.2079 N   0  3  0  0  0  0
   -4.8570    1.5879    1.4757 C   0  0  0  0  0  0
   -2.5873    0.0733   -0.9149 O   0  0  0  0  0  0
    0.0427   -0.0796    0.0030 O   0  0  0  0  0  0
    1.4662   -0.0123    0.0361 C   0  0  2  0  0  0
    1.8308    1.0172    0.0606 H   0  0  0  0  0  0
    2.0148   -0.7162   -1.2261 C   0  0  1  0  0  0
    3.1024   -0.6694   -1.1589 H   0  0  0  0  0  0
    1.6402   -2.2119   -1.2494 C   0  0  0  0  0  0
    2.1474   -2.9355    0.0155 C   0  0  1  0  0  0
    3.2366   -2.8756    0.0232 H   0  0  0  0  0  0
    1.6213   -2.2688    1.3069 C   0  0  1  0  0  0
    2.1061   -2.7359    2.1672 H   0  0  0  0  0  0
    1.9779   -0.7635    1.2851 C   0  0  2  0  0  0
    3.0670   -0.7074    1.2542 H   0  0  0  0  0  0
    1.6503   -0.1016    2.4901 O   0  0  0  0  0  0
    0.2054   -2.4397    1.3367 O   0  0  0  0  0  0
   -0.2718   -3.1157    2.4560 C   0  0  2  0  0  0
    0.2583   -4.0683    2.5241 H   0  0  0  0  0  0
   -1.7796   -3.3888    2.2604 C   0  0  1  0  0  0
   -1.8856   -3.9952    1.3601 H   0  0  0  0  0  0
   -2.2759   -4.2125    3.4608 C   0  0  0  0  0  0
   -1.7490   -3.6397    4.7571 C   0  0  0  0  0  0
   -0.7138   -2.7812    4.7904 C   0  0  0  0  0  0
   -0.0328   -2.4195    3.6516 O   0  0  0  0  0  0
   -0.1438   -2.1553    6.0450 C   0  0  0  0  0  0
   -0.4286   -0.7119    6.0676 N   0  3  0  0  0  0
   -2.5535   -2.1486    2.0792 N   0  0  0  0  0  0
    1.8187   -4.3724   -0.0236 N   0  3  0  0  0  0
    1.6381   -0.0217   -2.4662 N   0  0  0  0  0  0
   -2.8487    4.5099   -0.7154 O   0  0  0  0  0  0
   -2.6368    1.8678   -2.7501 H   0  0  0  0  0  0
   -2.6907    3.5683   -3.1483 H   0  0  0  0  0  0
   -4.0788    2.8124   -2.3903 H   0  0  0  0  0  0
   -0.5224    3.8013   -1.9319 H   0  0  0  0  0  0
   -0.4596    3.7566   -0.1859 H   0  0  0  0  0  0
   -5.9463    1.5780    1.4380 H   0  0  0  0  0  0
   -4.5528    2.2080    2.3194 H   0  0  0  0  0  0
   -4.5199    0.5666    1.6518 H   0  0  0  0  0  0
   -2.0166   -0.6781   -0.9761 H   0  0  0  0  0  0
    0.5588   -2.3246   -1.3412 H   0  0  0  0  0  0
    2.0719   -2.6811   -2.1346 H   0  0  0  0  0  0
    2.0205    0.7678    2.4621 H   0  0  0  0  0  0
   -3.3659   -4.2384    3.4860 H   0  0  0  0  0  0
   -1.9360   -5.2457    3.3824 H   0  0  0  0  0  0
   -2.2429   -3.9444    5.6685 H   0  0  0  0  0  0
   -0.5684   -2.6245    6.9332 H   0  0  0  0  0  0
    0.9348   -2.3122    6.0721 H   0  0  0  0  0  0
   -0.0281   -0.3030    6.8999 H   0  0  0  0  0  0
   -2.2205   -1.6444    1.2587 H   0  0  0  0  0  0
    0.8153   -4.4878   -0.0295 H   0  0  0  0  0  0
    1.9269    0.9552   -2.4336 H   0  0  0  0  0  0
   -2.4019    4.8133    0.0604 H   0  0  0  0  0  0
    2.2067   -4.8329    0.7872 H   0  0  0  0  0  0
   -4.7256    3.0350    0.0626 H   0  0  0  0  0  0
   -1.4280   -0.5660    6.0676 H   0  0  0  0  0  0
    2.0983   -0.4448   -3.2712 H   0  0  0  0  0  0
   -3.5359   -2.3664    1.9165 H   0  0  0  0  0  0
    2.2074   -4.7843   -0.8603 H   0  0  0  0  0  0
   -4.6065    1.5209   -0.5529 H   0  0  0  0  0  0
   -0.0244   -0.2781    5.2499 H   0  0  0  0  0  0
  1  2  1  0  0  0
  1 42  1  0  0  0
  1 43  1  0  0  0
  1 44  1  0  0  0
  2  9  1  0  0  0
  2  3  1  0  0  0
  2 41  1  0  0  0
  3  4  1  0  0  0
  3 45  1  0  0  0
  3 46  1  0  0  0
  4  5  1  0  0  0
  5  6  1  0  0  0
  5  7  1  0  0  0
  5 14  1  0  0  0
  7  8  1  0  0  0
  7  9  1  0  0  0
  7 13  1  0  0  0
  9 10  1  0  0  0
  9 11  1  0  0  0
 11 12  1  0  0  0
 11 65  1  0  0  0
 11 70  1  0  0  0
 12 47  1  0  0  0
 12 48  1  0  0  0
 12 49  1  0  0  0
 13 50  1  0  0  0
 14 15  1  0  0  0
 15 16  1  0  0  0
 15 24  1  0  0  0
 15 17  1  0  0  0
 17 18  1  0  0  0
 17 19  1  0  0  0
 17 40  1  0  0  0
 19 20  1  0  0  0
 19 51  1  0  0  0
 19 52  1  0  0  0
 20 21  1  0  0  0
 20 22  1  0  0  0
 20 39  1  0  0  0
 22 23  1  0  0  0
 22 24  1  0  0  0
 22 27  1  0  0  0
 24 25  1  0  0  0
 24 26  1  0  0  0
 26 53  1  0  0  0
 27 28  1  0  0  0
 28 29  1  0  0  0
 28 35  1  0  0  0
 28 30  1  0  0  0
 30 31  1  0  0  0
 30 32  1  0  0  0
 30 38  1  0  0  0
 32 33  1  0  0  0
 32 54  1  0  0  0
 32 55  1  0  0  0
 33 34  2  0  0  0
 33 56  1  0  0  0
 34 35  1  0  0  0
 34 36  1  0  0  0
 36 37  1  0  0  0
 36 57  1  0  0  0
 36 58  1  0  0  0
 37 59  1  0  0  0
 37 66  1  0  0  0
 37 71  1  0  0  0
 38 60  1  0  0  0
 38 68  1  0  0  0
 39 61  1  0  0  0
 39 64  1  0  0  0
 39 69  1  0  0  0
 40 62  1  0  0  0
 40 67  1  0  0  0
 41 63  1  0  0  0
M  CHG  3  11   1  37   1  39   1
M  END
> <s_m_entry_id>
99

> <s_m_entry_name>
biosynth_p1.0.sdf.92

> <s_m_Source_Path>
/Users/Sebastito/Downloads

> <s_m_Source_File>
biosynth_p1.0.sdf.gz

> <i_m_Source_File_Index>
92

> <chiral flag>
1

> <version>
0

> <i_m_ct_enhanced_stereo_status>
0

> <s_m_source_file>
ligprep_vs.maegz

> <i_m_source_file_index>
92

> <i_lp_mmshare_version>
37011

> <r_epik_Ionization_Penalty>
1.98152

> <r_epik_Ionization_Penalty_Charging>
0.157133

> <r_epik_Ionization_Penalty_Neutral>
1.82439

> <r_epik_State_Penalty>
2.16151

> <r_epik_Charging_Adjusted_Penalty>
2.31864

> <i_epik_Tot_Q>
3

> <i_epik_Tot_abs_Q>
3

> <s_epik_Chemistry_Notes>
This compound contains an acetal/aminal-like group ( X-CH(R)-Y where X, Y are N, S, or O) that may be acid/base labile, releasing an aldehyde.

> <i_f3d_flags>
0

> <s_lp_Force_Field>
OPLS_2005

> <r_lp_Energy>
66.4054

> <b_lp_Chiralities_Consistent>
1

> <s_lp_Variant>
ZINC60184549-7

$$$$
ZINC60184549
                    3D
 Structure written by MMmdl.
 71 73  0  0  1  0            999 V2000
   -3.1446    2.8437   -2.4446 C   0  0  0  0  0  0
   -2.4468    3.2463   -1.1274 C   0  0  2  0  0  0
   -0.9138    3.2730   -1.3021 C   0  0  0  0  0  0
   -0.3980    1.9470   -1.3581 O   0  0  0  0  0  0
   -0.5792    1.2205   -0.1786 C   0  0  1  0  0  0
   -0.1549    1.7864    0.6545 H   0  0  0  0  0  0
   -2.0844    0.9932    0.0602 C   0  0  1  0  0  0
   -2.1789    0.5025    1.0280 H   0  0  0  0  0  0
   -2.7957    2.3683    0.1046 C   0  0  2  0  0  0
   -2.4145    2.8921    0.9837 H   0  0  0  0  0  0
   -4.2614    2.2351    0.2884 N   0  3  0  0  0  0
   -4.6928    1.7830    1.6261 C   0  0  0  0  0  0
   -2.6474    0.1292   -0.9087 O   0  0  0  0  0  0
    0.0510   -0.0187   -0.2152 O   0  0  0  0  0  0
    1.4749    0.0396   -0.1901 C   0  0  2  0  0  0
    1.8416    1.0579   -0.3387 H   0  0  0  0  0  0
    1.9995   -0.8426   -1.3446 C   0  0  1  0  0  0
    3.0843   -0.7356   -1.3848 H   0  0  0  0  0  0
    1.6788   -2.3360   -1.1216 C   0  0  0  0  0  0
    2.2284   -2.8266    0.2335 C   0  0  1  0  0  0
    3.3032   -2.6417    0.2148 H   0  0  0  0  0  0
    1.6605   -1.9934    1.4072 C   0  0  1  0  0  0
    2.1225   -2.3070    2.3462 H   0  0  0  0  0  0
    2.0016   -0.5076    1.1569 C   0  0  2  0  0  0
    3.0897   -0.4399    1.1140 H   0  0  0  0  0  0
    1.6622    0.3173    2.2527 O   0  0  0  0  0  0
    0.2417   -2.1369    1.4371 O   0  0  0  0  0  0
   -0.2400   -2.9622    2.4498 C   0  0  2  0  0  0
    0.3112   -3.9038    2.4225 H   0  0  0  0  0  0
   -1.7347   -3.2455    2.1822 C   0  0  1  0  0  0
   -1.8031   -3.7323    1.2086 H   0  0  0  0  0  0
   -2.2314   -4.2307    3.2537 C   0  0  0  0  0  0
   -1.7513   -3.8131    4.6253 C   0  0  0  0  0  0
   -0.7480   -2.9326    4.7934 C   0  0  0  0  0  0
   -0.0508   -2.4117    3.7279 O   0  0  0  0  0  0
   -0.2268   -2.4572    6.1318 C   0  0  0  0  0  0
   -0.7035   -1.0916    6.4016 N   0  3  0  0  0  0
   -2.5403   -2.0120    2.1451 N   0  0  0  0  0  0
    2.0577   -4.2747    0.4237 N   0  0  0  0  0  0
    1.4937   -0.3732   -2.6477 N   0  3  0  0  0  0
   -2.8511    4.5722   -0.8410 O   0  0  0  0  0  0
   -2.8273    1.8631   -2.7959 H   0  0  0  0  0  0
   -2.9085    3.5513   -3.2404 H   0  0  0  0  0  0
   -4.2302    2.8279   -2.3451 H   0  0  0  0  0  0
   -0.6391    3.7979   -2.2177 H   0  0  0  0  0  0
   -0.4331    3.8107   -0.4825 H   0  0  0  0  0  0
   -5.7815    1.7777    1.6788 H   0  0  0  0  0  0
   -4.3200    2.4523    2.4019 H   0  0  0  0  0  0
   -4.3426    0.7727    1.8368 H   0  0  0  0  0  0
   -2.1627   -0.6825   -0.9057 H   0  0  0  0  0  0
    0.6018   -2.5041   -1.1712 H   0  0  0  0  0  0
    2.1178   -2.9254   -1.9278 H   0  0  0  0  0  0
    2.1118   -0.0051    3.0190 H   0  0  0  0  0  0
   -3.3203   -4.2902    3.2468 H   0  0  0  0  0  0
   -1.8569   -5.2350    3.0528 H   0  0  0  0  0  0
   -2.2542   -4.2462    5.4775 H   0  0  0  0  0  0
   -0.5577   -3.1249    6.9280 H   0  0  0  0  0  0
    0.8637   -2.4673    6.1245 H   0  0  0  0  0  0
   -0.3404   -0.7756    7.2894 H   0  0  0  0  0  0
   -2.2022   -1.3966    1.4072 H   0  0  0  0  0  0
    2.4979   -4.7918   -0.3367 H   0  0  0  0  0  0
    0.4861   -0.4422   -2.6614 H   0  0  0  0  0  0
   -2.3411    4.8985   -0.1148 H   0  0  0  0  0  0
    2.5046   -4.5781    1.2880 H   0  0  0  0  0  0
   -4.6718    3.1441    0.1260 H   0  0  0  0  0  0
   -1.7130   -1.0889    6.4301 H   0  0  0  0  0  0
    1.8802   -0.9428   -3.3870 H   0  0  0  0  0  0
   -3.5116   -2.2329    1.9296 H   0  0  0  0  0  0
    1.7645    0.5896   -2.7888 H   0  0  0  0  0  0
   -4.6154    1.5961   -0.4095 H   0  0  0  0  0  0
   -0.3855   -0.4746    5.6680 H   0  0  0  0  0  0
  1  2  1  0  0  0
  1 42  1  0  0  0
  1 43  1  0  0  0
  1 44  1  0  0  0
  2  9  1  0  0  0
  2  3  1  0  0  0
  2 41  1  0  0  0
  3  4  1  0  0  0
  3 45  1  0  0  0
  3 46  1  0  0  0
  4  5  1  0  0  0
  5  6  1  0  0  0
  5  7  1  0  0  0
  5 14  1  0  0  0
  7  8  1  0  0  0
  7  9  1  0  0  0
  7 13  1  0  0  0
  9 10  1  0  0  0
  9 11  1  0  0  0
 11 12  1  0  0  0
 11 65  1  0  0  0
 11 70  1  0  0  0
 12 47  1  0  0  0
 12 48  1  0  0  0
 12 49  1  0  0  0
 13 50  1  0  0  0
 14 15  1  0  0  0
 15 16  1  0  0  0
 15 24  1  0  0  0
 15 17  1  0  0  0
 17 18  1  0  0  0
 17 19  1  0  0  0
 17 40  1  0  0  0
 19 20  1  0  0  0
 19 51  1  0  0  0
 19 52  1  0  0  0
 20 21  1  0  0  0
 20 22  1  0  0  0
 20 39  1  0  0  0
 22 23  1  0  0  0
 22 24  1  0  0  0
 22 27  1  0  0  0
 24 25  1  0  0  0
 24 26  1  0  0  0
 26 53  1  0  0  0
 27 28  1  0  0  0
 28 29  1  0  0  0
 28 35  1  0  0  0
 28 30  1  0  0  0
 30 31  1  0  0  0
 30 32  1  0  0  0
 30 38  1  0  0  0
 32 33  1  0  0  0
 32 54  1  0  0  0
 32 55  1  0  0  0
 33 34  2  0  0  0
 33 56  1  0  0  0
 34 35  1  0  0  0
 34 36  1  0  0  0
 36 37  1  0  0  0
 36 57  1  0  0  0
 36 58  1  0  0  0
 37 59  1  0  0  0
 37 66  1  0  0  0
 37 71  1  0  0  0
 38 60  1  0  0  0
 38 68  1  0  0  0
 39 61  1  0  0  0
 39 64  1  0  0  0
 40 62  1  0  0  0
 40 67  1  0  0  0
 40 69  1  0  0  0
 41 63  1  0  0  0
M  CHG  3  11   1  37   1  40   1
M  END
> <s_m_entry_id>
99

> <s_m_entry_name>
biosynth_p1.0.sdf.92

> <s_m_Source_Path>
/Users/Sebastito/Downloads

> <s_m_Source_File>
biosynth_p1.0.sdf.gz

> <i_m_Source_File_Index>
92

> <chiral flag>
1

> <version>
0

> <i_m_ct_enhanced_stereo_status>
0

> <s_m_source_file>
ligprep_vs.maegz

> <i_m_source_file_index>
92

> <i_lp_mmshare_version>
37011

> <r_epik_Ionization_Penalty>
2.05908

> <r_epik_Ionization_Penalty_Charging>
0.155437

> <r_epik_Ionization_Penalty_Neutral>
1.90364

> <r_epik_State_Penalty>
2.19182

> <r_epik_Charging_Adjusted_Penalty>
2.34726

> <i_epik_Tot_Q>
3

> <i_epik_Tot_abs_Q>
3

> <s_epik_Chemistry_Notes>
This compound contains an acetal/aminal-like group ( X-CH(R)-Y where X, Y are N, S, or O) that may be acid/base labile, releasing an aldehyde.

> <i_f3d_flags>
0

> <s_lp_Force_Field>
OPLS_2005

> <r_lp_Energy>
62.2656

> <b_lp_Chiralities_Consistent>
1

> <s_lp_Variant>
ZINC60184549-8

$$$$
ZINC60184549
                    3D
 Structure written by MMmdl.
 72 74  0  0  1  0            999 V2000
   -2.9863    2.9387   -1.5051 C   0  0  0  0  0  0
   -2.2136    2.9921   -0.1696 C   0  0  2  0  0  0
   -0.6863    3.0113   -0.4063 C   0  0  0  0  0  0
   -0.2031    1.7154   -0.7460 O   0  0  0  0  0  0
   -0.3772    0.7692    0.2662 C   0  0  1  0  0  0
    0.0663    1.1487    1.1899 H   0  0  0  0  0  0
   -1.8823    0.5227    0.4713 C   0  0  1  0  0  0
   -1.9829   -0.1792    1.2958 H   0  0  0  0  0  0
   -2.5523    1.8674    0.8470 C   0  0  2  0  0  0
   -2.1082    2.1730    1.7961 H   0  0  0  0  0  0
   -4.0000    1.7244    1.0584 N   0  0  0  0  0  0
   -4.3878    0.8897    2.1926 C   0  0  0  0  0  0
   -2.4705   -0.0735   -0.6688 O   0  0  0  0  0  0
    0.2326   -0.4464   -0.0267 O   0  0  0  0  0  0
    1.6563   -0.4035   -0.0487 C   0  0  2  0  0  0
    2.0362    0.6199   -0.0029 H   0  0  0  0  0  0
    2.1311   -1.0454   -1.3717 C   0  0  1  0  0  0
    3.2161   -0.9435   -1.4242 H   0  0  0  0  0  0
    1.7945   -2.5521   -1.4410 C   0  0  0  0  0  0
    2.3381   -3.3158   -0.2113 C   0  0  1  0  0  0
    3.4258   -3.2285   -0.2133 H   0  0  0  0  0  0
    1.8043   -2.7148    1.1103 C   0  0  1  0  0  0
    2.2618   -3.2480    1.9456 H   0  0  0  0  0  0
    2.2124   -1.2186    1.1381 C   0  0  2  0  0  0
    3.2986   -1.1988    1.0362 H   0  0  0  0  0  0
    2.0245   -0.5838    2.3846 O   0  0  0  0  0  0
    0.3887   -2.9235    1.0837 O   0  0  0  0  0  0
   -0.2738   -2.9414    2.3113 C   0  0  2  0  0  0
    0.3247   -3.5031    3.0315 H   0  0  0  0  0  0
   -1.6297   -3.6598    2.1055 C   0  0  1  0  0  0
   -1.4332   -4.6702    1.7449 H   0  0  0  0  0  0
   -2.3496   -3.7259    3.4625 C   0  0  0  0  0  0
   -2.3089   -2.3799    4.1478 C   0  0  0  0  0  0
   -1.4099   -1.4379    3.8117 C   0  0  0  0  0  0
   -0.4677   -1.6504    2.8312 O   0  0  0  0  0  0
   -1.3428   -0.0493    4.4141 C   0  0  0  0  0  0
   -0.2989    0.0123    5.4510 N   0  3  0  0  0  0
   -2.4548   -2.9723    1.0914 N   0  3  0  0  0  0
    2.0550   -4.7611   -0.3033 N   0  3  0  0  0  0
    1.5973   -0.3168   -2.5386 N   0  3  0  0  0  0
   -2.5281    4.2230    0.4531 O   0  0  0  0  0  0
   -2.7346    2.0549   -2.0892 H   0  0  0  0  0  0
   -2.7488    3.8026   -2.1269 H   0  0  0  0  0  0
   -4.0660    2.9423   -1.3541 H   0  0  0  0  0  0
   -0.4295    3.7053   -1.2075 H   0  0  0  0  0  0
   -0.1572    3.3607    0.4827 H   0  0  0  0  0  0
   -5.4719    0.8847    2.3065 H   0  0  0  0  0  0
   -3.9601    1.2672    3.1216 H   0  0  0  0  0  0
   -4.0709   -0.1445    2.0626 H   0  0  0  0  0  0
   -3.4106   -0.0053   -0.5871 H   0  0  0  0  0  0
    0.7145   -2.6877   -1.5168 H   0  0  0  0  0  0
    2.2187   -2.9767   -2.3522 H   0  0  0  0  0  0
    1.0969   -0.5403    2.5587 H   0  0  0  0  0  0
   -3.3857   -4.0407    3.3326 H   0  0  0  0  0  0
   -1.8746   -4.4575    4.1171 H   0  0  0  0  0  0
   -3.0336   -2.1986    4.9286 H   0  0  0  0  0  0
   -1.1211    0.6793    3.6340 H   0  0  0  0  0  0
   -2.3056    0.2199    4.8501 H   0  0  0  0  0  0
   -0.2654    0.9442    5.8401 H   0  0  0  0  0  0
   -2.6611   -2.0331    1.3998 H   0  0  0  0  0  0
    1.0570   -4.9156   -0.3086 H   0  0  0  0  0  0
    0.5882   -0.3664   -2.5393 H   0  0  0  0  0  0
   -2.3163    4.9261   -0.1424 H   0  0  0  0  0  0
    2.4651   -5.2390    0.4868 H   0  0  0  0  0  0
   -4.4074    2.6491    1.1654 H   0  0  0  0  0  0
    0.5994   -0.2139    5.0486 H   0  0  0  0  0  0
    1.9544   -0.7262   -3.3904 H   0  0  0  0  0  0
   -3.3196   -3.4782    0.9604 H   0  0  0  0  0  0
    2.4547   -5.1302   -1.1548 H   0  0  0  0  0  0
    1.8806    0.6519   -2.4911 H   0  0  0  0  0  0
   -0.5128   -0.6462    6.1865 H   0  0  0  0  0  0
   -1.9544   -2.9339    0.2151 H   0  0  0  0  0  0
  1  2  1  0  0  0
  1 42  1  0  0  0
  1 43  1  0  0  0
  1 44  1  0  0  0
  2  9  1  0  0  0
  2  3  1  0  0  0
  2 41  1  0  0  0
  3  4  1  0  0  0
  3 45  1  0  0  0
  3 46  1  0  0  0
  4  5  1  0  0  0
  5  6  1  0  0  0
  5  7  1  0  0  0
  5 14  1  0  0  0
  7  8  1  0  0  0
  7  9  1  0  0  0
  7 13  1  0  0  0
  9 10  1  0  0  0
  9 11  1  0  0  0
 11 12  1  0  0  0
 11 65  1  0  0  0
 12 47  1  0  0  0
 12 48  1  0  0  0
 12 49  1  0  0  0
 13 50  1  0  0  0
 14 15  1  0  0  0
 15 16  1  0  0  0
 15 24  1  0  0  0
 15 17  1  0  0  0
 17 18  1  0  0  0
 17 19  1  0  0  0
 17 40  1  0  0  0
 19 20  1  0  0  0
 19 51  1  0  0  0
 19 52  1  0  0  0
 20 21  1  0  0  0
 20 22  1  0  0  0
 20 39  1  0  0  0
 22 23  1  0  0  0
 22 24  1  0  0  0
 22 27  1  0  0  0
 24 25  1  0  0  0
 24 26  1  0  0  0
 26 53  1  0  0  0
 27 28  1  0  0  0
 28 29  1  0  0  0
 28 35  1  0  0  0
 28 30  1  0  0  0
 30 31  1  0  0  0
 30 32  1  0  0  0
 30 38  1  0  0  0
 32 33  1  0  0  0
 32 54  1  0  0  0
 32 55  1  0  0  0
 33 34  2  0  0  0
 33 56  1  0  0  0
 34 35  1  0  0  0
 34 36  1  0  0  0
 36 37  1  0  0  0
 36 57  1  0  0  0
 36 58  1  0  0  0
 37 59  1  0  0  0
 37 66  1  0  0  0
 37 71  1  0  0  0
 38 60  1  0  0  0
 38 68  1  0  0  0
 38 72  1  0  0  0
 39 61  1  0  0  0
 39 64  1  0  0  0
 39 69  1  0  0  0
 40 62  1  0  0  0
 40 67  1  0  0  0
 40 70  1  0  0  0
 41 63  1  0  0  0
M  CHG  4  37   1  38   1  39   1  40   1
M  END
> <s_m_entry_id>
99

> <s_m_entry_name>
biosynth_p1.0.sdf.92

> <s_m_Source_Path>
/Users/Sebastito/Downloads

> <s_m_Source_File>
biosynth_p1.0.sdf.gz

> <i_m_Source_File_Index>
92

> <chiral flag>
1

> <version>
0

> <i_m_ct_enhanced_stereo_status>
0

> <s_m_source_file>
ligprep_vs.maegz

> <i_m_source_file_index>
92

> <i_lp_mmshare_version>
37011

> <r_epik_Ionization_Penalty>
2.31594

> <r_epik_Ionization_Penalty_Charging>
0.747414

> <r_epik_Ionization_Penalty_Neutral>
1.56853

> <r_epik_State_Penalty>
2.30076

> <r_epik_Charging_Adjusted_Penalty>
3.04818

> <i_epik_Tot_Q>
4

> <i_epik_Tot_abs_Q>
4

> <s_epik_Chemistry_Notes>
This compound contains an acetal/aminal-like group ( X-CH(R)-Y where X, Y are N, S, or O) that may be acid/base labile, releasing an aldehyde.

> <i_f3d_flags>
0

> <s_lp_Force_Field>
OPLS_2005

> <r_lp_Energy>
87.6992

> <b_lp_Chiralities_Consistent>
1

> <s_lp_Variant>
ZINC60184549-9

$$$$
ZINC60184549
                    3D
 Structure written by MMmdl.
 71 73  0  0  1  0            999 V2000
   -2.7985    3.1529   -1.3663 C   0  0  0  0  0  0
   -2.1052    3.0047    0.0044 C   0  0  2  0  0  0
   -0.5651    2.9998   -0.1464 C   0  0  0  0  0  0
   -0.0837    1.7396   -0.5966 O   0  0  0  0  0  0
   -0.3370    0.6991    0.2981 C   0  0  1  0  0  0
    0.0480    0.9659    1.2847 H   0  0  0  0  0  0
   -1.8553    0.4663    0.3584 C   0  0  1  0  0  0
   -2.0411   -0.3247    1.0834 H   0  0  0  0  0  0
   -2.5466    1.7638    0.8428 C   0  0  2  0  0  0
   -2.1907    1.9272    1.8609 H   0  0  0  0  0  0
   -4.0004    1.5289    0.9048 N   0  0  0  0  0  0
   -4.7929    2.5463    1.5899 C   0  0  0  0  0  0
   -2.3517    0.0255   -0.8925 O   0  0  0  0  0  0
    0.2708   -0.4923   -0.0813 O   0  0  0  0  0  0
    1.6939   -0.4594   -0.1034 C   0  0  2  0  0  0
    2.0820    0.5608   -0.0658 H   0  0  0  0  0  0
    2.1379   -1.1065   -1.4339 C   0  0  1  0  0  0
    3.2226   -1.0172   -1.5100 H   0  0  0  0  0  0
    1.7784   -2.6082   -1.4951 C   0  0  0  0  0  0
    2.3283   -3.3832   -0.2750 C   0  0  1  0  0  0
    3.4175   -3.3271   -0.2995 H   0  0  0  0  0  0
    1.8368   -2.7687    1.0562 C   0  0  1  0  0  0
    2.3030   -3.3077    1.8830 H   0  0  0  0  0  0
    2.2660   -1.2789    1.0729 C   0  0  2  0  0  0
    3.3487   -1.2803    0.9379 H   0  0  0  0  0  0
    2.1384   -0.6376    2.3255 O   0  0  0  0  0  0
    0.4214   -2.9617    1.0536 O   0  0  0  0  0  0
   -0.2246   -2.9366    2.2878 C   0  0  2  0  0  0
    0.3853   -3.4760    3.0153 H   0  0  0  0  0  0
   -1.5786   -3.6665    2.1280 C   0  0  1  0  0  0
   -1.3607   -4.6905    1.8227 H   0  0  0  0  0  0
   -2.2689   -3.7084    3.5015 C   0  0  0  0  0  0
   -2.1948   -2.3581    4.1762 C   0  0  0  0  0  0
   -1.3176   -1.4151    3.7896 C   0  0  0  0  0  0
   -0.4104   -1.6365    2.7802 O   0  0  0  0  0  0
   -1.2165   -0.0270    4.3834 C   0  0  0  0  0  0
    0.0018    0.0870    5.2010 N   0  3  0  0  0  0
   -2.4308   -3.0474    1.0970 N   0  0  0  0  0  0
    1.9945   -4.8181   -0.3572 N   0  3  0  0  0  0
    1.5821   -0.3736   -2.5875 N   0  3  0  0  0  0
   -2.3702    4.1756    0.7526 O   0  0  0  0  0  0
   -2.5558    2.3302   -2.0369 H   0  0  0  0  0  0
   -2.4841    4.0698   -1.8658 H   0  0  0  0  0  0
   -3.8836    3.1951   -1.2726 H   0  0  0  0  0  0
   -0.2452    3.7696   -0.8495 H   0  0  0  0  0  0
   -0.0787    3.2352    0.8027 H   0  0  0  0  0  0
   -5.8309    2.2243    1.6751 H   0  0  0  0  0  0
   -4.7957    3.4901    1.0464 H   0  0  0  0  0  0
   -4.4175    2.7268    2.5974 H   0  0  0  0  0  0
   -3.2923   -0.0490   -0.8290 H   0  0  0  0  0  0
    0.6947   -2.7258   -1.5514 H   0  0  0  0  0  0
    2.1776   -3.0408   -2.4135 H   0  0  0  0  0  0
    2.5902    0.1921    2.2846 H   0  0  0  0  0  0
   -3.3119   -4.0106    3.3985 H   0  0  0  0  0  0
   -1.7886   -4.4416    4.1504 H   0  0  0  0  0  0
   -2.8849   -2.1721    4.9864 H   0  0  0  0  0  0
   -1.1834    0.7109    3.5823 H   0  0  0  0  0  0
   -2.0914    0.1910    4.9967 H   0  0  0  0  0  0
    0.0691    1.0211    5.5796 H   0  0  0  0  0  0
   -1.9607   -3.0499    0.1929 H   0  0  0  0  0  0
    0.9910   -4.9327   -0.3322 H   0  0  0  0  0  0
    0.5727   -0.4137   -2.5571 H   0  0  0  0  0  0
   -3.3055    4.2505    0.8666 H   0  0  0  0  0  0
    2.4067   -5.3092    0.4236 H   0  0  0  0  0  0
   -4.1692    0.6283    1.3419 H   0  0  0  0  0  0
    0.8114   -0.1041    4.6279 H   0  0  0  0  0  0
    1.9092   -0.7895   -3.4478 H   0  0  0  0  0  0
   -3.2972   -3.5730    0.9860 H   0  0  0  0  0  0
    2.3540   -5.2022   -1.2197 H   0  0  0  0  0  0
    1.8752    0.5926   -2.5498 H   0  0  0  0  0  0
   -0.0381   -0.5799    5.9586 H   0  0  0  0  0  0
  1  2  1  0  0  0
  1 42  1  0  0  0
  1 43  1  0  0  0
  1 44  1  0  0  0
  2  9  1  0  0  0
  2  3  1  0  0  0
  2 41  1  0  0  0
  3  4  1  0  0  0
  3 45  1  0  0  0
  3 46  1  0  0  0
  4  5  1  0  0  0
  5  6  1  0  0  0
  5  7  1  0  0  0
  5 14  1  0  0  0
  7  8  1  0  0  0
  7  9  1  0  0  0
  7 13  1  0  0  0
  9 10  1  0  0  0
  9 11  1  0  0  0
 11 12  1  0  0  0
 11 65  1  0  0  0
 12 47  1  0  0  0
 12 48  1  0  0  0
 12 49  1  0  0  0
 13 50  1  0  0  0
 14 15  1  0  0  0
 15 16  1  0  0  0
 15 24  1  0  0  0
 15 17  1  0  0  0
 17 18  1  0  0  0
 17 19  1  0  0  0
 17 40  1  0  0  0
 19 20  1  0  0  0
 19 51  1  0  0  0
 19 52  1  0  0  0
 20 21  1  0  0  0
 20 22  1  0  0  0
 20 39  1  0  0  0
 22 23  1  0  0  0
 22 24  1  0  0  0
 22 27  1  0  0  0
 24 25  1  0  0  0
 24 26  1  0  0  0
 26 53  1  0  0  0
 27 28  1  0  0  0
 28 29  1  0  0  0
 28 35  1  0  0  0
 28 30  1  0  0  0
 30 31  1  0  0  0
 30 32  1  0  0  0
 30 38  1  0  0  0
 32 33  1  0  0  0
 32 54  1  0  0  0
 32 55  1  0  0  0
 33 34  2  0  0  0
 33 56  1  0  0  0
 34 35  1  0  0  0
 34 36  1  0  0  0
 36 37  1  0  0  0
 36 57  1  0  0  0
 36 58  1  0  0  0
 37 59  1  0  0  0
 37 66  1  0  0  0
 37 71  1  0  0  0
 38 60  1  0  0  0
 38 68  1  0  0  0
 39 61  1  0  0  0
 39 64  1  0  0  0
 39 69  1  0  0  0
 40 62  1  0  0  0
 40 67  1  0  0  0
 40 70  1  0  0  0
 41 63  1  0  0  0
M  CHG  3  37   1  39   1  40   1
M  END
> <s_m_entry_id>
99

> <s_m_entry_name>
biosynth_p1.0.sdf.92

> <s_m_Source_Path>
/Users/Sebastito/Downloads

> <s_m_Source_File>
biosynth_p1.0.sdf.gz

> <i_m_Source_File_Index>
92

> <chiral flag>
1

> <version>
0

> <i_m_ct_enhanced_stereo_status>
0

> <s_m_source_file>
ligprep_vs.maegz

> <i_m_source_file_index>
92

> <i_lp_mmshare_version>
37011

> <r_epik_Ionization_Penalty>
2.23666

> <r_epik_Ionization_Penalty_Charging>
0.231425

> <r_epik_Ionization_Penalty_Neutral>
2.00524

> <r_epik_State_Penalty>
2.4054

> <r_epik_Charging_Adjusted_Penalty>
2.63682

> <i_epik_Tot_Q>
3

> <i_epik_Tot_abs_Q>
3

> <s_epik_Chemistry_Notes>
This compound contains an acetal/aminal-like group ( X-CH(R)-Y where X, Y are N, S, or O) that may be acid/base labile, releasing an aldehyde.

> <i_f3d_flags>
0

> <s_lp_Force_Field>
OPLS_2005

> <r_lp_Energy>
76.0148

> <b_lp_Chiralities_Consistent>
1

> <s_lp_Variant>
ZINC60184549-10

$$$$
ZINC60184549
                    3D
 Structure written by MMmdl.
 71 73  0  0  1  0            999 V2000
   -3.2421    2.8295   -1.5692 C   0  0  0  0  0  0
   -2.4847    3.0124   -0.2362 C   0  0  2  0  0  0
   -0.9639    3.1201   -0.4756 C   0  0  0  0  0  0
   -0.4185    1.8416   -0.7862 O   0  0  0  0  0  0
   -0.5246    0.9153    0.2544 C   0  0  1  0  0  0
   -0.0843    1.3475    1.1559 H   0  0  0  0  0  0
   -2.0122    0.5921    0.5008 C   0  0  1  0  0  0
   -2.0565   -0.0776    1.3582 H   0  0  0  0  0  0
   -2.7475    1.9164    0.8313 C   0  0  2  0  0  0
   -2.3258    2.2844    1.7690 H   0  0  0  0  0  0
   -4.1974    1.7203    1.0740 N   0  3  0  0  0  0
   -4.5393    1.0049    2.3195 C   0  0  0  0  0  0
   -2.5875   -0.0986   -0.5932 O   0  0  0  0  0  0
    0.1525   -0.2699   -0.0132 O   0  0  0  0  0  0
    1.5720   -0.1396   -0.0568 C   0  0  2  0  0  0
    1.8871    0.9063   -0.0314 H   0  0  0  0  0  0
    2.0704   -0.7684   -1.3775 C   0  0  1  0  0  0
    3.1453   -0.5958   -1.4473 H   0  0  0  0  0  0
    1.8341   -2.2934   -1.4202 C   0  0  0  0  0  0
    2.4598   -2.9972   -0.1957 C   0  0  1  0  0  0
    3.5286   -2.7807   -0.2216 H   0  0  0  0  0  0
    1.9145   -2.4154    1.1271 C   0  0  1  0  0  0
    2.4265   -2.9033    1.9585 H   0  0  0  0  0  0
    2.2026   -0.8945    1.1334 C   0  0  2  0  0  0
    3.2827   -0.7882    1.0226 H   0  0  0  0  0  0
    1.9622   -0.2715    2.3765 O   0  0  0  0  0  0
    0.5178   -2.7105    1.1204 O   0  0  0  0  0  0
   -0.1042   -2.8332    2.3598 C   0  0  2  0  0  0
    0.5784   -3.3035    3.0706 H   0  0  0  0  0  0
   -1.3366   -3.7433    2.1647 C   0  0  1  0  0  0
   -0.9959   -4.7103    1.7924 H   0  0  0  0  0  0
   -2.0232   -3.9245    3.5271 C   0  0  0  0  0  0
   -2.1652   -2.5939    4.2282 C   0  0  0  0  0  0
   -1.4313   -1.5216    3.8831 C   0  0  0  0  0  0
   -0.4800   -1.5862    2.8871 O   0  0  0  0  0  0
   -1.5633   -0.1618    4.5478 C   0  0  0  0  0  0
   -0.8072    0.8787    3.8768 N   0  0  0  0  0  0
   -2.2589   -3.1733    1.1638 N   0  3  0  0  0  0
    2.3189   -4.4606   -0.2532 N   0  0  0  0  0  0
    1.4735   -0.0989   -2.5480 N   0  3  0  0  0  0
   -2.9049    4.2507    0.3054 O   0  0  0  0  0  0
   -2.9152    1.9427   -2.1102 H   0  0  0  0  0  0
   -3.0718    3.6786   -2.2326 H   0  0  0  0  0  0
   -4.3196    2.7528   -1.4217 H   0  0  0  0  0  0
   -0.7502    3.8055   -1.2964 H   0  0  0  0  0  0
   -0.4551    3.5226    0.4025 H   0  0  0  0  0  0
   -5.6224    0.9674    2.4361 H   0  0  0  0  0  0
   -4.1244    1.5176    3.1877 H   0  0  0  0  0  0
   -4.1677   -0.0195    2.3070 H   0  0  0  0  0  0
   -3.4882   -0.3003   -0.3918 H   0  0  0  0  0  0
    0.7649   -2.5054   -1.4689 H   0  0  0  0  0  0
    2.2668   -2.7021   -2.3343 H   0  0  0  0  0  0
    1.0479   -0.3783    2.5918 H   0  0  0  0  0  0
   -3.0053   -4.3828    3.4045 H   0  0  0  0  0  0
   -1.4396   -4.5874    4.1671 H   0  0  0  0  0  0
   -2.8828   -2.5321    5.0335 H   0  0  0  0  0  0
   -2.6153    0.1233    4.5686 H   0  0  0  0  0  0
   -1.2265   -0.2343    5.5824 H   0  0  0  0  0  0
   -0.9569    1.7550    4.3576 H   0  0  0  0  0  0
   -2.5857   -2.2741    1.4850 H   0  0  0  0  0  0
    2.7397   -4.8283   -1.1058 H   0  0  0  0  0  0
    0.4710   -0.2225   -2.5319 H   0  0  0  0  0  0
   -2.3515    4.4681    1.0406 H   0  0  0  0  0  0
    2.8034   -4.8983    0.5296 H   0  0  0  0  0  0
   -4.6182    2.6377    1.1280 H   0  0  0  0  0  0
    0.1794    0.6804    3.9722 H   0  0  0  0  0  0
    1.8486   -0.5000   -3.3959 H   0  0  0  0  0  0
   -3.0438   -3.7959    1.0355 H   0  0  0  0  0  0
    1.6887    0.8876   -2.5201 H   0  0  0  0  0  0
   -4.5999    1.2358    0.2848 H   0  0  0  0  0  0
   -1.7689   -3.0623    0.2873 H   0  0  0  0  0  0
  1  2  1  0  0  0
  1 42  1  0  0  0
  1 43  1  0  0  0
  1 44  1  0  0  0
  2  9  1  0  0  0
  2  3  1  0  0  0
  2 41  1  0  0  0
  3  4  1  0  0  0
  3 45  1  0  0  0
  3 46  1  0  0  0
  4  5  1  0  0  0
  5  6  1  0  0  0
  5  7  1  0  0  0
  5 14  1  0  0  0
  7  8  1  0  0  0
  7  9  1  0  0  0
  7 13  1  0  0  0
  9 10  1  0  0  0
  9 11  1  0  0  0
 11 12  1  0  0  0
 11 65  1  0  0  0
 11 70  1  0  0  0
 12 47  1  0  0  0
 12 48  1  0  0  0
 12 49  1  0  0  0
 13 50  1  0  0  0
 14 15  1  0  0  0
 15 16  1  0  0  0
 15 24  1  0  0  0
 15 17  1  0  0  0
 17 18  1  0  0  0
 17 19  1  0  0  0
 17 40  1  0  0  0
 19 20  1  0  0  0
 19 51  1  0  0  0
 19 52  1  0  0  0
 20 21  1  0  0  0
 20 22  1  0  0  0
 20 39  1  0  0  0
 22 23  1  0  0  0
 22 24  1  0  0  0
 22 27  1  0  0  0
 24 25  1  0  0  0
 24 26  1  0  0  0
 26 53  1  0  0  0
 27 28  1  0  0  0
 28 29  1  0  0  0
 28 35  1  0  0  0
 28 30  1  0  0  0
 30 31  1  0  0  0
 30 32  1  0  0  0
 30 38  1  0  0  0
 32 33  1  0  0  0
 32 54  1  0  0  0
 32 55  1  0  0  0
 33 34  2  0  0  0
 33 56  1  0  0  0
 34 35  1  0  0  0
 34 36  1  0  0  0
 36 37  1  0  0  0
 36 57  1  0  0  0
 36 58  1  0  0  0
 37 59  1  0  0  0
 37 66  1  0  0  0
 38 60  1  0  0  0
 38 68  1  0  0  0
 38 71  1  0  0  0
 39 61  1  0  0  0
 39 64  1  0  0  0
 40 62  1  0  0  0
 40 67  1  0  0  0
 40 69  1  0  0  0
 41 63  1  0  0  0
M  CHG  3  11   1  38   1  40   1
M  END
> <s_m_entry_id>
99

> <s_m_entry_name>
biosynth_p1.0.sdf.92

> <s_m_Source_Path>
/Users/Sebastito/Downloads

> <s_m_Source_File>
biosynth_p1.0.sdf.gz

> <i_m_Source_File_Index>
92

> <chiral flag>
1

> <version>
0

> <i_m_ct_enhanced_stereo_status>
0

> <s_m_source_file>
ligprep_vs.maegz

> <i_m_source_file_index>
92

> <i_lp_mmshare_version>
37011

> <r_epik_Ionization_Penalty>
2.18991

> <r_epik_Ionization_Penalty_Charging>
0.179312

> <r_epik_Ionization_Penalty_Neutral>
2.0106

> <r_epik_State_Penalty>
2.42851

> <r_epik_Charging_Adjusted_Penalty>
2.60782

> <i_epik_Tot_Q>
3

> <i_epik_Tot_abs_Q>
3

> <s_epik_Chemistry_Notes>
This compound contains an acetal/aminal-like group ( X-CH(R)-Y where X, Y are N, S, or O) that may be acid/base labile, releasing an aldehyde.

> <i_f3d_flags>
0

> <s_lp_Force_Field>
OPLS_2005

> <r_lp_Energy>
60.0049

> <b_lp_Chiralities_Consistent>
1

> <s_lp_Variant>
ZINC60184549-11

$$$$
ZINC60184549
                    3D
 Structure written by MMmdl.
 71 73  0  0  1  0            999 V2000
   -2.6255    2.9660   -1.8324 C   0  0  0  0  0  0
   -1.8953    3.1246   -0.4814 C   0  0  2  0  0  0
   -0.3675    2.9954   -0.6597 C   0  0  0  0  0  0
   -0.0021    1.6335   -0.8589 O   0  0  0  0  0  0
   -0.2832    0.8073    0.2320 C   0  0  1  0  0  0
    0.1725    1.2394    1.1258 H   0  0  0  0  0  0
   -1.8101    0.7157    0.4216 C   0  0  1  0  0  0
   -1.9863    0.1173    1.3136 H   0  0  0  0  0  0
   -2.3526    2.1513    0.6383 C   0  0  2  0  0  0
   -1.9121    2.5160    1.5685 H   0  0  0  0  0  0
   -3.8223    2.1844    0.8331 N   0  3  0  0  0  0
   -4.3046    1.5997    2.1007 C   0  0  0  0  0  0
   -2.4375    0.0466   -0.6568 O   0  0  0  0  0  0
    0.2334   -0.4764    0.0836 O   0  0  0  0  0  0
    1.6580   -0.5369    0.1264 C   0  0  2  0  0  0
    2.1146    0.4553    0.1506 H   0  0  0  0  0  0
    2.1556   -1.2758   -1.1364 C   0  0  1  0  0  0
    3.2446   -1.2944   -1.0746 H   0  0  0  0  0  0
    1.6976   -2.7489   -1.1621 C   0  0  0  0  0  0
    2.1272   -3.4947    0.1210 C   0  0  1  0  0  0
    3.2172   -3.4898    0.1670 H   0  0  0  0  0  0
    1.5823   -2.7971    1.3882 C   0  0  1  0  0  0
    1.9607   -3.3240    2.2660 H   0  0  0  0  0  0
    2.0931   -1.3336    1.3749 C   0  0  2  0  0  0
    3.1816   -1.3955    1.3297 H   0  0  0  0  0  0
    1.8900   -0.6342    2.5839 O   0  0  0  0  0  0
    0.1608   -2.9062    1.2923 O   0  0  0  0  0  0
   -0.5618   -2.8728    2.4831 C   0  0  2  0  0  0
   -0.0304   -3.4465    3.2453 H   0  0  0  0  0  0
   -1.9305   -3.5338    2.2056 C   0  0  1  0  0  0
   -1.7595   -4.5526    1.8561 H   0  0  0  0  0  0
   -2.7257   -3.5627    3.5201 C   0  0  0  0  0  0
   -2.6608   -2.2171    4.2034 C   0  0  0  0  0  0
   -1.7182   -1.3070    3.9009 C   0  0  0  0  0  0
   -0.7342   -1.5666    2.9701 O   0  0  0  0  0  0
   -1.6341    0.0663    4.5443 C   0  0  0  0  0  0
   -0.7872    0.9850    3.8088 N   0  0  0  0  0  0
   -2.6604   -2.8060    1.1491 N   0  3  0  0  0  0
    1.7335   -4.9151    0.0733 N   0  3  0  0  0  0
    1.8123   -0.5561   -2.3718 N   0  0  0  0  0  0
   -2.1472    4.4435   -0.0332 O   0  0  0  0  0  0
   -2.4121    2.0086   -2.3052 H   0  0  0  0  0  0
   -2.3101    3.7369   -2.5368 H   0  0  0  0  0  0
   -3.7069    3.0538   -1.7271 H   0  0  0  0  0  0
   -0.0276    3.5819   -1.5140 H   0  0  0  0  0  0
    0.1643    3.3833    0.2113 H   0  0  0  0  0  0
   -5.3833    1.7349    2.1806 H   0  0  0  0  0  0
   -3.8386    2.0889    2.9565 H   0  0  0  0  0  0
   -4.0963    0.5311    2.1530 H   0  0  0  0  0  0
   -3.3697    0.0243   -0.5057 H   0  0  0  0  0  0
    0.6148   -2.7999   -1.2864 H   0  0  0  0  0  0
    2.1276   -3.2455   -2.0331 H   0  0  0  0  0  0
    2.3789    0.1743    2.5488 H   0  0  0  0  0  0
   -3.7662   -3.8320    3.3342 H   0  0  0  0  0  0
   -2.3194   -4.3120    4.2002 H   0  0  0  0  0  0
   -3.4049   -2.0076    4.9584 H   0  0  0  0  0  0
   -2.6355    0.4906    4.6194 H   0  0  0  0  0  0
   -1.2484   -0.0381    5.5585 H   0  0  0  0  0  0
   -0.7599    1.8709    4.2944 H   0  0  0  0  0  0
   -2.8289   -1.8587    1.4545 H   0  0  0  0  0  0
    0.7273   -4.9869    0.0290 H   0  0  0  0  0  0
    0.8006   -0.4850   -2.4722 H   0  0  0  0  0  0
   -1.5895    4.6260    0.7080 H   0  0  0  0  0  0
    2.0700   -5.3883    0.8999 H   0  0  0  0  0  0
   -4.1026    3.1553    0.8219 H   0  0  0  0  0  0
    0.1606    0.6340    3.8196 H   0  0  0  0  0  0
    2.1666    0.3990   -2.3379 H   0  0  0  0  0  0
   -3.5410   -3.2659    0.9668 H   0  0  0  0  0  0
    2.1367   -5.3475   -0.7460 H   0  0  0  0  0  0
   -4.2672    1.7196    0.0548 H   0  0  0  0  0  0
   -2.1047   -2.7913    0.3055 H   0  0  0  0  0  0
  1  2  1  0  0  0
  1 42  1  0  0  0
  1 43  1  0  0  0
  1 44  1  0  0  0
  2  9  1  0  0  0
  2  3  1  0  0  0
  2 41  1  0  0  0
  3  4  1  0  0  0
  3 45  1  0  0  0
  3 46  1  0  0  0
  4  5  1  0  0  0
  5  6  1  0  0  0
  5  7  1  0  0  0
  5 14  1  0  0  0
  7  8  1  0  0  0
  7  9  1  0  0  0
  7 13  1  0  0  0
  9 10  1  0  0  0
  9 11  1  0  0  0
 11 12  1  0  0  0
 11 65  1  0  0  0
 11 70  1  0  0  0
 12 47  1  0  0  0
 12 48  1  0  0  0
 12 49  1  0  0  0
 13 50  1  0  0  0
 14 15  1  0  0  0
 15 16  1  0  0  0
 15 24  1  0  0  0
 15 17  1  0  0  0
 17 18  1  0  0  0
 17 19  1  0  0  0
 17 40  1  0  0  0
 19 20  1  0  0  0
 19 51  1  0  0  0
 19 52  1  0  0  0
 20 21  1  0  0  0
 20 22  1  0  0  0
 20 39  1  0  0  0
 22 23  1  0  0  0
 22 24  1  0  0  0
 22 27  1  0  0  0
 24 25  1  0  0  0
 24 26  1  0  0  0
 26 53  1  0  0  0
 27 28  1  0  0  0
 28 29  1  0  0  0
 28 35  1  0  0  0
 28 30  1  0  0  0
 30 31  1  0  0  0
 30 32  1  0  0  0
 30 38  1  0  0  0
 32 33  1  0  0  0
 32 54  1  0  0  0
 32 55  1  0  0  0
 33 34  2  0  0  0
 33 56  1  0  0  0
 34 35  1  0  0  0
 34 36  1  0  0  0
 36 37  1  0  0  0
 36 57  1  0  0  0
 36 58  1  0  0  0
 37 59  1  0  0  0
 37 66  1  0  0  0
 38 60  1  0  0  0
 38 68  1  0  0  0
 38 71  1  0  0  0
 39 61  1  0  0  0
 39 64  1  0  0  0
 39 69  1  0  0  0
 40 62  1  0  0  0
 40 67  1  0  0  0
 41 63  1  0  0  0
M  CHG  3  11   1  38   1  39   1
M  END
> <s_m_entry_id>
99

> <s_m_entry_name>
biosynth_p1.0.sdf.92

> <s_m_Source_Path>
/Users/Sebastito/Downloads

> <s_m_Source_File>
biosynth_p1.0.sdf.gz

> <i_m_Source_File_Index>
92

> <chiral flag>
1

> <version>
0

> <i_m_ct_enhanced_stereo_status>
0

> <s_m_source_file>
ligprep_vs.maegz

> <i_m_source_file_index>
92

> <i_lp_mmshare_version>
37011

> <r_epik_Ionization_Penalty>
2.2111

> <r_epik_Ionization_Penalty_Charging>
0.195249

> <r_epik_Ionization_Penalty_Neutral>
2.01585

> <r_epik_State_Penalty>
2.46226

> <r_epik_Charging_Adjusted_Penalty>
2.65751

> <i_epik_Tot_Q>
3

> <i_epik_Tot_abs_Q>
3

> <s_epik_Chemistry_Notes>
This compound contains an acetal/aminal-like group ( X-CH(R)-Y where X, Y are N, S, or O) that may be acid/base labile, releasing an aldehyde.

> <i_f3d_flags>
0

> <s_lp_Force_Field>
OPLS_2005

> <r_lp_Energy>
63.2899

> <b_lp_Chiralities_Consistent>
1

> <s_lp_Variant>
ZINC60184549-12

$$$$
ZINC18115268
                    3D
 Structure written by MMmdl.
 33 33  0  0  1  0            999 V2000
   -2.3651    2.2646   -3.2087 C   0  0  0  0  0  0
   -2.6755    0.9151   -2.6535 C   0  0  0  0  0  0
   -2.6686    0.4386   -1.3583 C   0  0  0  0  0  0
   -3.0319   -0.9114   -1.3476 N   0  0  0  0  0  0
   -3.2408   -1.2018   -2.6255 C   0  0  0  0  0  0
   -3.0449   -0.1625   -3.4408 N   0  0  0  0  0  0
   -3.1504   -0.1627   -4.4453 H   0  0  0  0  0  0
   -2.3329    1.1624   -0.0881 C   0  0  0  0  0  0
   -0.5615    1.5623   -0.0378 S   0  0  0  0  0  0
    0.1613   -0.1012   -0.0490 C   0  0  0  0  0  0
    1.6920   -0.0431    0.0489 C   0  0  0  0  0  0
    2.3010   -1.3670    0.0213 N   0  0  0  0  0  0
    2.4556   -2.1977   -1.0968 C   0  0  0  0  0  0
    2.1243   -1.5873   -2.3004 N   0  0  0  0  0  0
    2.1815   -2.2322   -3.6016 C   0  0  0  0  0  0
    2.8716   -3.4304   -1.0808 N   0  0  0  0  0  0
    3.1784   -3.9689    0.0958 C   0  0  0  0  0  0
    3.4489   -4.4440    1.1163 N   0  0  0  0  0  0
   -2.7241    3.0498   -2.5433 H   0  0  0  0  0  0
   -2.8353    2.4085   -4.1818 H   0  0  0  0  0  0
   -1.2894    2.3921   -3.3302 H   0  0  0  0  0  0
   -3.5399   -2.1805   -2.9710 H   0  0  0  0  0  0
   -2.9021    2.0892   -0.0151 H   0  0  0  0  0  0
   -2.5871    0.5640    0.7874 H   0  0  0  0  0  0
   -0.2496   -0.6711    0.7849 H   0  0  0  0  0  0
   -0.1401   -0.6087   -0.9650 H   0  0  0  0  0  0
    2.1030    0.5690   -0.7548 H   0  0  0  0  0  0
    1.9807    0.4412    0.9820 H   0  0  0  0  0  0
    2.5491   -1.7083    0.9394 H   0  0  0  0  0  0
    1.8495   -1.5405   -4.3757 H   0  0  0  0  0  0
    1.5349   -3.1100   -3.6262 H   0  0  0  0  0  0
    3.2009   -2.5425   -3.8332 H   0  0  0  0  0  0
    1.8058   -0.6296   -2.3286 H   0  0  0  0  0  0
  1  2  1  0  0  0
  1 19  1  0  0  0
  1 20  1  0  0  0
  1 21  1  0  0  0
  2  6  1  0  0  0
  2  3  2  0  0  0
  3  4  1  0  0  0
  3  8  1  0  0  0
  4  5  2  0  0  0
  5  6  1  0  0  0
  5 22  1  0  0  0
  6  7  1  0  0  0
  8  9  1  0  0  0
  8 23  1  0  0  0
  8 24  1  0  0  0
  9 10  1  0  0  0
 10 11  1  0  0  0
 10 25  1  0  0  0
 10 26  1  0  0  0
 11 12  1  0  0  0
 11 27  1  0  0  0
 11 28  1  0  0  0
 12 13  1  0  0  0
 12 29  1  0  0  0
 13 14  1  0  0  0
 13 16  2  0  0  0
 14 15  1  0  0  0
 14 33  1  0  0  0
 15 30  1  0  0  0
 15 31  1  0  0  0
 15 32  1  0  0  0
 16 17  1  0  0  0
 17 18  3  0  0  0
M  END
> <s_m_entry_id>
100

> <s_m_entry_name>
biosynth_p1.0.sdf.93

> <s_m_Source_Path>
/Users/Sebastito/Downloads

> <s_m_Source_File>
biosynth_p1.0.sdf.gz

> <i_m_Source_File_Index>
93

> <chiral flag>
0

> <version>
0

> <i_m_ct_enhanced_stereo_status>
0

> <s_m_source_file>
ligprep_vs.maegz

> <i_m_source_file_index>
93

> <i_lp_mmshare_version>
37011

> <r_lp_tautomer_probability>
0.5

> <r_epik_Ionization_Penalty>
0.291778

> <r_epik_Ionization_Penalty_Charging>
0.265381

> <r_epik_Ionization_Penalty_Neutral>
0.0263964

> <r_epik_State_Penalty>
0.55287

> <r_epik_Charging_Adjusted_Penalty>
0.818251

> <i_epik_Tot_Q>
0

> <i_epik_Tot_abs_Q>
0

> <s_epik_Chemistry_Notes>
This compound has an imine and may undergo hydrolysis.

> <i_f3d_flags>
0

> <s_lp_Force_Field>
OPLS_2005

> <r_lp_Energy>
6.25811

> <b_lp_Chiralities_Consistent>
1

> <s_lp_Variant>
ZINC18115268-1

$$$$
ZINC18115268
                    3D
 Structure written by MMmdl.
 34 34  0  0  1  0            999 V2000
   -2.0702    2.5208   -2.9514 C   0  0  0  0  0  0
   -2.0954    1.0473   -2.7229 C   0  0  0  0  0  0
   -2.1883    0.3087   -1.5661 C   0  0  0  0  0  0
   -2.1617   -1.0074   -1.9520 N   0  3  0  0  0  0
   -2.0534   -1.1052   -3.2787 C   0  0  0  0  0  0
   -2.0148    0.1426   -3.7497 N   0  0  0  0  0  0
   -1.9301    0.3851   -4.7291 H   0  0  0  0  0  0
   -2.2993    0.7284   -0.1359 C   0  0  0  0  0  0
   -0.7326    1.4500    0.4287 S   0  0  0  0  0  0
    0.3137   -0.0311    0.5519 C   0  0  0  0  0  0
    1.7514    0.2430    0.0837 C   0  0  0  0  0  0
    1.8244    0.5778   -1.3342 N   0  0  0  0  0  0
    1.6474   -0.2991   -2.4121 C   0  0  0  0  0  0
    1.7165   -1.6413   -2.0599 N   0  0  0  0  0  0
    1.5646   -2.7508   -2.9862 C   0  0  0  0  0  0
    1.4388    0.0425   -3.6498 N   0  0  0  0  0  0
    1.3725    1.3398   -3.9341 C   0  0  0  0  0  0
    1.2938    2.4672   -4.1828 N   0  0  0  0  0  0
   -1.2430    2.9707   -2.4017 H   0  0  0  0  0  0
   -3.0020    2.9700   -2.6076 H   0  0  0  0  0  0
   -1.9435    2.7466   -4.0108 H   0  0  0  0  0  0
   -2.0045   -2.0112   -3.8558 H   0  0  0  0  0  0
   -3.0890    1.4743   -0.0453 H   0  0  0  0  0  0
   -2.5709   -0.1190    0.4948 H   0  0  0  0  0  0
    0.3142   -0.3591    1.5913 H   0  0  0  0  0  0
   -0.1188   -0.8471   -0.0255 H   0  0  0  0  0  0
    2.1719    1.0723    0.6529 H   0  0  0  0  0  0
    2.3858   -0.6195    0.2900 H   0  0  0  0  0  0
    1.8615    1.5742   -1.4995 H   0  0  0  0  0  0
    1.6518   -3.6976   -2.4534 H   0  0  0  0  0  0
    2.3372   -2.7185   -3.7553 H   0  0  0  0  0  0
    0.5885   -2.7188   -3.4708 H   0  0  0  0  0  0
    1.9145   -1.9216   -1.1102 H   0  0  0  0  0  0
   -2.2156   -1.7972   -1.3212 H   0  0  0  0  0  0
  1  2  1  0  0  0
  1 19  1  0  0  0
  1 20  1  0  0  0
  1 21  1  0  0  0
  2  6  1  0  0  0
  2  3  2  0  0  0
  3  4  1  0  0  0
  3  8  1  0  0  0
  4  5  2  0  0  0
  4 34  1  0  0  0
  5  6  1  0  0  0
  5 22  1  0  0  0
  6  7  1  0  0  0
  8  9  1  0  0  0
  8 23  1  0  0  0
  8 24  1  0  0  0
  9 10  1  0  0  0
 10 11  1  0  0  0
 10 25  1  0  0  0
 10 26  1  0  0  0
 11 12  1  0  0  0
 11 27  1  0  0  0
 11 28  1  0  0  0
 12 13  1  0  0  0
 12 29  1  0  0  0
 13 14  1  0  0  0
 13 16  2  0  0  0
 14 15  1  0  0  0
 14 33  1  0  0  0
 15 30  1  0  0  0
 15 31  1  0  0  0
 15 32  1  0  0  0
 16 17  1  0  0  0
 17 18  3  0  0  0
M  CHG  1   4   1
M  END
> <s_m_entry_id>
100

> <s_m_entry_name>
biosynth_p1.0.sdf.93

> <s_m_Source_Path>
/Users/Sebastito/Downloads

> <s_m_Source_File>
biosynth_p1.0.sdf.gz

> <i_m_Source_File_Index>
93

> <chiral flag>
0

> <version>
0

> <i_m_ct_enhanced_stereo_status>
0

> <s_m_source_file>
ligprep_vs.maegz

> <i_m_source_file_index>
93

> <i_lp_mmshare_version>
37011

> <r_lp_tautomer_probability>
1

> <r_epik_Ionization_Penalty>
0.903339

> <r_epik_Ionization_Penalty_Charging>
0

> <r_epik_Ionization_Penalty_Neutral>
0.903339

> <r_epik_State_Penalty>
0.682096

> <r_epik_Charging_Adjusted_Penalty>
0.682096

> <i_epik_Tot_Q>
1

> <i_epik_Tot_abs_Q>
1

> <s_epik_Chemistry_Notes>
This compound has an imine and may undergo hydrolysis.

> <i_f3d_flags>
0

> <s_lp_Force_Field>
OPLS_2005

> <r_lp_Energy>
5.61482

> <b_lp_Chiralities_Consistent>
1

> <s_lp_Variant>
ZINC18115268-2

$$$$
ZINC18115268
                    3D
 Structure written by MMmdl.
 33 33  0  0  1  0            999 V2000
   -2.9424   -1.3322    1.8985 C   0  0  0  0  0  0
   -2.4717    0.0178    2.3436 C   0  0  0  0  0  0
   -2.2314    1.1488    1.5891 C   0  0  0  0  0  0
   -1.8134    2.1102    2.4950 N   0  0  0  0  0  0
   -1.8185    1.5473    3.7055 C   0  0  0  0  0  0
   -2.2041    0.2778    3.6901 N   0  0  0  0  0  0
   -1.5473    3.0605    2.2799 H   0  0  0  0  0  0
   -2.3547    1.4137    0.1221 C   0  0  0  0  0  0
   -0.7121    1.6602   -0.6114 S   0  0  0  0  0  0
   -0.0431   -0.0279   -0.5405 C   0  0  0  0  0  0
    1.4599   -0.0382   -0.2213 C   0  0  0  0  0  0
    1.7595    0.5354    1.0859 N   0  0  0  0  0  0
    1.4773   -0.0289    2.3367 C   0  0  0  0  0  0
    1.1496   -1.3779    2.2825 N   0  0  0  0  0  0
    0.7487   -2.1792    3.4267 C   0  0  0  0  0  0
    1.5062    0.5935    3.4787 N   0  0  0  0  0  0
    1.7975    1.8909    3.4723 C   0  0  0  0  0  0
    2.0349    3.0239    3.4667 N   0  0  0  0  0  0
   -2.1101   -1.9422    1.5474 H   0  0  0  0  0  0
   -3.6638   -1.2529    1.0850 H   0  0  0  0  0  0
   -3.4261   -1.8728    2.7124 H   0  0  0  0  0  0
   -1.5277    2.0694    4.6051 H   0  0  0  0  0  0
   -2.9521    2.3104   -0.0435 H   0  0  0  0  0  0
   -2.8602    0.5917   -0.3847 H   0  0  0  0  0  0
   -0.5830   -0.6120    0.2021 H   0  0  0  0  0  0
   -0.2278   -0.5091   -1.5009 H   0  0  0  0  0  0
    1.8491   -1.0554   -0.2726 H   0  0  0  0  0  0
    1.9994    0.5339   -0.9763 H   0  0  0  0  0  0
    2.0562    1.4997    1.0301 H   0  0  0  0  0  0
    0.4614   -3.1786    3.1004 H   0  0  0  0  0  0
   -0.1033   -1.7281    3.9362 H   0  0  0  0  0  0
    1.5705   -2.2719    4.1374 H   0  0  0  0  0  0
    1.1417   -1.8779    1.4057 H   0  0  0  0  0  0
  1 19  1  0  0  0
  1 20  1  0  0  0
  1 21  1  0  0  0
  1  2  1  0  0  0
  2  3  2  0  0  0
  2  6  1  0  0  0
  3  8  1  0  0  0
  3  4  1  0  0  0
  4  7  1  0  0  0
  4  5  1  0  0  0
  5 22  1  0  0  0
  5  6  2  0  0  0
  8  9  1  0  0  0
  8 23  1  0  0  0
  8 24  1  0  0  0
  9 10  1  0  0  0
 10 11  1  0  0  0
 10 25  1  0  0  0
 10 26  1  0  0  0
 11 12  1  0  0  0
 11 27  1  0  0  0
 11 28  1  0  0  0
 12 13  1  0  0  0
 12 29  1  0  0  0
 13 14  1  0  0  0
 13 16  2  0  0  0
 14 15  1  0  0  0
 14 33  1  0  0  0
 15 30  1  0  0  0
 15 31  1  0  0  0
 15 32  1  0  0  0
 16 17  1  0  0  0
 17 18  3  0  0  0
M  END
> <s_m_entry_id>
100

> <s_m_entry_name>
biosynth_p1.0.sdf.93

> <s_m_Source_Path>
/Users/Sebastito/Downloads

> <s_m_Source_File>
biosynth_p1.0.sdf.gz

> <i_m_Source_File_Index>
93

> <chiral flag>
0

> <version>
0

> <i_m_ct_enhanced_stereo_status>
0

> <s_m_source_file>
ligprep_vs.maegz

> <i_m_source_file_index>
93

> <i_lp_mmshare_version>
37011

> <r_lp_tautomer_probability>
0.5

> <r_epik_Ionization_Penalty>
0.614101

> <r_epik_Ionization_Penalty_Charging>
0.587704

> <r_epik_Ionization_Penalty_Neutral>
0.0263966

> <r_epik_State_Penalty>
0.784558

> <r_epik_Charging_Adjusted_Penalty>
1.37226

> <i_epik_Tot_Q>
0

> <i_epik_Tot_abs_Q>
0

> <s_epik_Chemistry_Notes>
This compound has an imine and may undergo hydrolysis.

> <i_f3d_flags>
0

> <s_lp_Force_Field>
OPLS_2005

> <r_lp_Energy>
3.8779

> <b_lp_Chiralities_Consistent>
1

> <s_lp_Variant>
ZINC18115268-3

$$$$
ZINC18115268
                    3D
 Structure written by MMmdl.
 34 34  0  0  1  0            999 V2000
   -3.6527   -1.2671    1.3021 C   0  0  0  0  0  0
   -3.2746    0.0357    1.9234 C   0  0  0  0  0  0
   -2.8825    1.2329    1.3600 C   0  0  0  0  0  0
   -2.6288    2.1699    2.3664 N   0  0  0  0  0  0
   -2.8755    1.5125    3.4926 C   0  0  0  0  0  0
   -3.2590    0.2491    3.2917 N   0  0  0  0  0  0
   -3.4960   -0.4238    4.0068 H   0  0  0  0  0  0
   -2.7127    1.5807   -0.0896 C   0  0  0  0  0  0
   -0.9589    1.8685   -0.4630 S   0  0  0  0  0  0
   -0.2696    0.2068   -0.2114 C   0  0  0  0  0  0
    1.2624    0.2298   -0.2250 C   0  0  0  0  0  0
    1.7852    0.8643    0.9932 N   0  0  0  0  0  0
    3.0364    1.3368    1.1801 C   0  0  0  0  0  0
    3.9352    1.2414    0.1801 N   0  0  0  0  0  0
    5.3244    1.7133    0.2269 C   0  0  0  0  0  0
    3.4018    1.9062    2.3521 N   0  3  0  0  0  0
    2.6133    2.0758    3.4361 C   0  0  0  0  0  0
    1.8992    2.2012    4.3374 N   0  0  0  0  0  0
   -2.8329   -1.6595    0.6999 H   0  0  0  0  0  0
   -4.5200   -1.1471    0.6526 H   0  0  0  0  0  0
   -3.8997   -2.0109    2.0603 H   0  0  0  0  0  0
   -2.7761    1.9552    4.4728 H   0  0  0  0  0  0
   -3.0902    0.7881   -0.7358 H   0  0  0  0  0  0
   -3.2738    2.4830   -0.3332 H   0  0  0  0  0  0
   -0.6179   -0.1953    0.7397 H   0  0  0  0  0  0
   -0.6475   -0.4541   -0.9916 H   0  0  0  0  0  0
    1.6508   -0.7878   -0.2738 H   0  0  0  0  0  0
    1.6225    0.7569   -1.1089 H   0  0  0  0  0  0
    1.1395    0.9290    1.7678 H   0  0  0  0  0  0
    5.8162    1.5289   -0.7282 H   0  0  0  0  0  0
    5.8790    1.1914    1.0069 H   0  0  0  0  0  0
    5.3567    2.7838    0.4303 H   0  0  0  0  0  0
    3.6383    0.8130   -0.6851 H   0  0  0  0  0  0
    4.3495    2.2451    2.4352 H   0  0  0  0  0  0
  1  2  1  0  0  0
  1 19  1  0  0  0
  1 20  1  0  0  0
  1 21  1  0  0  0
  2  6  1  0  0  0
  2  3  2  0  0  0
  3  4  1  0  0  0
  3  8  1  0  0  0
  4  5  2  0  0  0
  5  6  1  0  0  0
  5 22  1  0  0  0
  6  7  1  0  0  0
  8  9  1  0  0  0
  8 23  1  0  0  0
  8 24  1  0  0  0
  9 10  1  0  0  0
 10 11  1  0  0  0
 10 25  1  0  0  0
 10 26  1  0  0  0
 11 12  1  0  0  0
 11 27  1  0  0  0
 11 28  1  0  0  0
 12 13  1  0  0  0
 12 29  1  0  0  0
 13 14  1  0  0  0
 13 16  2  0  0  0
 14 15  1  0  0  0
 14 33  1  0  0  0
 15 30  1  0  0  0
 15 31  1  0  0  0
 15 32  1  0  0  0
 16 17  1  0  0  0
 16 34  1  0  0  0
 17 18  3  0  0  0
M  CHG  1  16   1
M  END
> <s_m_entry_id>
100

> <s_m_entry_name>
biosynth_p1.0.sdf.93

> <s_m_Source_Path>
/Users/Sebastito/Downloads

> <s_m_Source_File>
biosynth_p1.0.sdf.gz

> <i_m_Source_File_Index>
93

> <chiral flag>
0

> <version>
0

> <i_m_ct_enhanced_stereo_status>
0

> <s_m_source_file>
ligprep_vs.maegz

> <i_m_source_file_index>
93

> <i_lp_mmshare_version>
37011

> <r_epik_Ionization_Penalty>
2.08309

> <r_epik_Ionization_Penalty_Charging>
2.08309

> <r_epik_Ionization_Penalty_Neutral>
5.53794e-08

> <r_epik_State_Penalty>
2.50566

> <r_epik_Charging_Adjusted_Penalty>
4.58876

> <i_epik_Tot_Q>
1

> <i_epik_Tot_abs_Q>
1

> <s_epik_Chemistry_Notes>
This compound has an imine and may undergo hydrolysis.

> <i_f3d_flags>
0

> <s_lp_Force_Field>
OPLS_2005

> <r_lp_Energy>
6.38105

> <b_lp_Chiralities_Consistent>
1

> <s_lp_Variant>
ZINC18115268-4

$$$$
ZINC31475809
                    3D
 Structure written by MMmdl.
 31 30  0  0  1  0            999 V2000
    0.4006   -0.2401    1.8718 C   0  0  0  0  0  0
    0.1247   -0.1549    0.3618 C   0  0  2  0  0  0
   -0.2185   -1.1344    0.0368 H   0  0  0  0  0  0
    1.3672    0.1524   -0.3687 N   0  0  0  0  0  0
    1.9806    1.4835   -0.2215 C   0  0  2  0  0  0
    1.4370    2.0199    0.5523 H   0  0  0  0  0  0
    1.9154    2.3243   -1.5091 C   0  0  0  0  0  0
    3.7210    1.3979    0.4275 S   0  0  0  0  0  0
    4.0369    2.7998    0.7448 O   0  0  0  0  0  0
    3.6311    0.5168    1.6017 O   0  0  0  0  0  0
    4.5119    0.8524   -0.6868 O   0  5  0  0  0  0
    1.7909   -0.7231   -1.4760 C   0  0  2  0  0  0
    2.7263   -0.3281   -1.8650 H   0  0  0  0  0  0
    0.7762   -0.7632   -2.6306 C   0  0  0  0  0  0
    2.2181   -2.4448   -0.9118 S   0  0  0  0  0  0
    3.0816   -2.9500   -1.9911 O   0  0  0  0  0  0
    2.9014   -2.2601    0.3774 O   0  0  0  0  0  0
    0.9244   -3.1404   -0.8189 O   0  5  0  0  0  0
   -1.3008    0.9992    0.0149 S   0  0  0  0  0  0
   -2.4597    0.2768    0.5625 O   0  0  0  0  0  0
   -0.9770    2.2324    0.7494 O   0  0  0  0  0  0
   -1.3255    1.1551   -1.4471 O   0  5  0  0  0  0
    1.1796   -0.9712    2.0880 H   0  0  0  0  0  0
   -0.4946   -0.5485    2.4111 H   0  0  0  0  0  0
    0.7193    0.7164    2.2852 H   0  0  0  0  0  0
    0.8918    2.4376   -1.8615 H   0  0  0  0  0  0
    2.5023    1.8869   -2.3160 H   0  0  0  0  0  0
    2.3058    3.3262   -1.3320 H   0  0  0  0  0  0
    0.6015    0.2302   -3.0416 H   0  0  0  0  0  0
   -0.1838   -1.1727   -2.3171 H   0  0  0  0  0  0
    1.1464   -1.3878   -3.4433 H   0  0  0  0  0  0
  1  2  1  0  0  0
  1 23  1  0  0  0
  1 24  1  0  0  0
  1 25  1  0  0  0
  2  3  1  0  0  0
  2  4  1  0  0  0
  2 19  1  0  0  0
  4  5  1  0  0  0
  4 12  1  0  0  0
  5  6  1  0  0  0
  5  7  1  0  0  0
  5  8  1  0  0  0
  7 26  1  0  0  0
  7 27  1  0  0  0
  7 28  1  0  0  0
  8  9  2  0  0  0
  8 10  2  0  0  0
  8 11  1  0  0  0
 12 13  1  0  0  0
 12 14  1  0  0  0
 12 15  1  0  0  0
 14 29  1  0  0  0
 14 30  1  0  0  0
 14 31  1  0  0  0
 15 16  2  0  0  0
 15 17  2  0  0  0
 15 18  1  0  0  0
 19 20  2  0  0  0
 19 21  2  0  0  0
 19 22  1  0  0  0
M  CHG  3  11  -1  18  -1  22  -1
M  END
> <s_m_entry_id>
101

> <s_m_entry_name>
biosynth_p1.0.sdf.94

> <s_m_Source_Path>
/Users/Sebastito/Downloads

> <s_m_Source_File>
biosynth_p1.0.sdf.gz

> <i_m_Source_File_Index>
94

> <chiral flag>
1

> <version>
0

> <i_m_ct_enhanced_stereo_status>
0

> <s_m_source_file>
ligprep_vs.maegz

> <i_m_source_file_index>
94

> <i_lp_mmshare_version>
37011

> <r_epik_Ionization_Penalty>
0.00871926

> <r_epik_Ionization_Penalty_Charging>
2.26e-08

> <r_epik_Ionization_Penalty_Neutral>
0.00871924

> <r_epik_State_Penalty>
0.00658525

> <r_epik_Charging_Adjusted_Penalty>
0.00658527

> <i_epik_Tot_Q>
-3

> <i_epik_Tot_abs_Q>
3

> <i_f3d_flags>
0

> <s_lp_Force_Field>
OPLS_2005

> <r_lp_Energy>
53.4766

> <b_lp_Chiralities_Consistent>
1

> <s_lp_Variant>
ZINC31475809-1

$$$$
ZINC31475809
                    3D
 Structure written by MMmdl.
 32 31  0  0  1  0            999 V2000
    0.3026   -0.2811    1.9182 C   0  0  0  0  0  0
    0.1236   -0.1750    0.3957 C   0  0  2  0  0  0
   -0.2259   -1.1480    0.0572 H   0  0  0  0  0  0
    1.4461    0.0918   -0.2622 N   0  3  0  0  0  0
    1.9874    1.4857   -0.1966 C   0  0  2  0  0  0
    1.4437    2.0278    0.5721 H   0  0  0  0  0  0
    1.9102    2.2929   -1.5078 C   0  0  0  0  0  0
    3.7198    1.4553    0.4536 S   0  0  0  0  0  0
    3.9781    2.8571    0.8168 O   0  0  0  0  0  0
    3.6496    0.5295    1.5941 O   0  0  0  0  0  0
    4.5290    0.9712   -0.6751 O   0  5  0  0  0  0
    1.8030   -0.7349   -1.4599 C   0  0  2  0  0  0
    2.7383   -0.3475   -1.8579 H   0  0  0  0  0  0
    0.7647   -0.7408   -2.5956 C   0  0  0  0  0  0
    2.2302   -2.4652   -0.9480 S   0  0  0  0  0  0
    3.1309   -2.9256   -2.0158 O   0  0  0  0  0  0
    2.8693   -2.3040    0.3667 O   0  0  0  0  0  0
    0.9396   -3.1705   -0.9134 O   0  5  0  0  0  0
   -1.2701    1.0045   -0.0023 S   0  0  0  0  0  0
   -2.4576    0.2933    0.4956 O   0  0  0  0  0  0
   -0.9605    2.2272    0.7545 O   0  0  0  0  0  0
   -1.2424    1.1719   -1.4615 O   0  5  0  0  0  0
    1.0434   -1.0393    2.1729 H   0  0  0  0  0  0
   -0.6324   -0.5601    2.4039 H   0  0  0  0  0  0
    0.6324    0.6622    2.3536 H   0  0  0  0  0  0
    0.8881    2.3981   -1.8628 H   0  0  0  0  0  0
    2.5004    1.8492   -2.3087 H   0  0  0  0  0  0
    2.2933    3.3014   -1.3534 H   0  0  0  0  0  0
    0.6086    0.2565   -3.0032 H   0  0  0  0  0  0
   -0.1990   -1.1349   -2.2748 H   0  0  0  0  0  0
    1.1084   -1.3678   -3.4183 H   0  0  0  0  0  0
    2.0577   -0.3470    0.4141 H   0  0  0  0  0  0
  1  2  1  0  0  0
  1 23  1  0  0  0
  1 24  1  0  0  0
  1 25  1  0  0  0
  2  3  1  0  0  0
  2  4  1  0  0  0
  2 19  1  0  0  0
  4  5  1  0  0  0
  4 12  1  0  0  0
  4 32  1  0  0  0
  5  6  1  0  0  0
  5  7  1  0  0  0
  5  8  1  0  0  0
  7 26  1  0  0  0
  7 27  1  0  0  0
  7 28  1  0  0  0
  8  9  2  0  0  0
  8 10  2  0  0  0
  8 11  1  0  0  0
 12 13  1  0  0  0
 12 14  1  0  0  0
 12 15  1  0  0  0
 14 29  1  0  0  0
 14 30  1  0  0  0
 14 31  1  0  0  0
 15 16  2  0  0  0
 15 17  2  0  0  0
 15 18  1  0  0  0
 19 20  2  0  0  0
 19 21  2  0  0  0
 19 22  1  0  0  0
M  CHG  4   4   1  11  -1  18  -1  22  -1
M  END
> <s_m_entry_id>
101

> <s_m_entry_name>
biosynth_p1.0.sdf.94

> <s_m_Source_Path>
/Users/Sebastito/Downloads

> <s_m_Source_File>
biosynth_p1.0.sdf.gz

> <i_m_Source_File_Index>
94

> <chiral flag>
1

> <version>
0

> <i_m_ct_enhanced_stereo_status>
0

> <s_m_source_file>
ligprep_vs.maegz

> <i_m_source_file_index>
94

> <i_lp_mmshare_version>
37011

> <r_epik_Ionization_Penalty>
2.50393

> <r_epik_Ionization_Penalty_Charging>
2.50393

> <r_epik_Ionization_Penalty_Neutral>
0

> <r_epik_State_Penalty>
2.66918

> <r_epik_Charging_Adjusted_Penalty>
5.17311

> <i_epik_Tot_Q>
-2

> <i_epik_Tot_abs_Q>
4

> <i_f3d_flags>
0

> <s_lp_Force_Field>
OPLS_2005

> <r_lp_Energy>
20.3551

> <b_lp_Chiralities_Consistent>
1

> <s_lp_Variant>
ZINC31475809-2

$$$$
ZINC60184552
                    3D
 Structure written by MMmdl.
 73 75  0  0  1  0            999 V2000
   -2.8138    4.7303   -1.1031 C   0  0  0  0  0  0
   -2.3717    3.2618   -1.2481 C   0  0  1  0  0  0
   -0.8385    3.1996   -1.4314 C   0  0  0  0  0  0
   -0.3507    1.8626   -1.3646 O   0  0  0  0  0  0
   -0.6069    1.1996   -0.1634 C   0  0  1  0  0  0
   -0.2204    1.8018    0.6624 H   0  0  0  0  0  0
   -2.1290    1.0088   -0.0217 C   0  0  1  0  0  0
   -2.3164    0.5254    0.9376 H   0  0  0  0  0  0
   -2.7918    2.4071   -0.0236 C   0  0  2  0  0  0
   -2.4125    2.9168    0.8645 H   0  0  0  0  0  0
   -4.2660    2.3030    0.1106 N   0  3  0  0  0  0
   -4.8476    3.0516    1.2423 C   0  0  0  0  0  0
   -2.6359    0.1598   -1.0368 O   0  0  0  0  0  0
    0.0088   -0.0506   -0.0933 O   0  0  0  0  0  0
    1.4349   -0.0141   -0.1579 C   0  0  2  0  0  0
    1.8129    1.0107   -0.1879 H   0  0  0  0  0  0
    1.9008   -0.7606   -1.4323 C   0  0  1  0  0  0
    2.9859   -0.6665   -1.4971 H   0  0  0  0  0  0
    1.5615   -2.2648   -1.3758 C   0  0  0  0  0  0
    2.1654   -2.9292   -0.1208 C   0  0  1  0  0  0
    3.2508   -2.8353   -0.1802 H   0  0  0  0  0  0
    1.6932   -2.2310    1.1748 C   0  0  1  0  0  0
    2.2302   -2.6634    2.0221 H   0  0  0  0  0  0
    2.0237   -0.7225    1.0825 C   0  0  2  0  0  0
    3.1085   -0.6540    0.9872 H   0  0  0  0  0  0
    1.7581   -0.0253    2.2819 O   0  0  0  0  0  0
    0.2833   -2.4269    1.2816 O   0  0  0  0  0  0
   -0.1376   -2.9853    2.4868 C   0  0  2  0  0  0
    0.4440   -3.8916    2.6710 H   0  0  0  0  0  0
   -1.6316   -3.3583    2.3515 C   0  0  1  0  0  0
   -1.7389   -4.0633    1.5261 H   0  0  0  0  0  0
   -2.0780   -4.0226    3.6643 C   0  0  0  0  0  0
   -1.6046   -3.2170    4.8525 C   0  0  0  0  0  0
   -0.5979   -2.3299    4.7563 C   0  0  0  0  0  0
    0.0702   -2.1154    3.5719 O   0  0  0  0  0  0
   -0.1057   -1.4523    5.8896 C   0  0  0  0  0  0
    1.1143   -2.0194    6.4887 N   0  3  0  0  0  0
   -2.4520   -2.1711    2.0425 N   0  3  0  0  0  0
    1.8884   -4.3783   -0.0926 N   0  3  0  0  0  0
    1.3731   -0.1384   -2.6608 N   0  3  0  0  0  0
   -2.9706    2.7878   -2.4406 O   0  0  0  0  0  0
   -2.4136    5.1766   -0.1921 H   0  0  0  0  0  0
   -3.8994    4.8256   -1.0679 H   0  0  0  0  0  0
   -2.4650    5.3340   -1.9420 H   0  0  0  0  0  0
   -0.5429    3.6379   -2.3855 H   0  0  0  0  0  0
   -0.3405    3.7869   -0.6579 H   0  0  0  0  0  0
   -5.9302    2.9252    1.2526 H   0  0  0  0  0  0
   -4.6305    4.1168    1.1636 H   0  0  0  0  0  0
   -4.4536    2.6853    2.1907 H   0  0  0  0  0  0
   -3.5791    0.1369   -0.9830 H   0  0  0  0  0  0
    0.4792   -2.4043   -1.3906 H   0  0  0  0  0  0
    1.9453   -2.7588   -2.2697 H   0  0  0  0  0  0
    0.8254   -0.0256    2.4317 H   0  0  0  0  0  0
   -3.1638   -4.1215    3.6950 H   0  0  0  0  0  0
   -1.6650   -5.0286    3.7472 H   0  0  0  0  0  0
   -2.1067   -3.3820    5.7952 H   0  0  0  0  0  0
    0.1073   -0.4513    5.5132 H   0  0  0  0  0  0
   -0.8759   -1.3574    6.6559 H   0  0  0  0  0  0
    1.4278   -1.4236    7.2421 H   0  0  0  0  0  0
   -2.3682   -1.4998    2.7922 H   0  0  0  0  0  0
    0.8923   -4.5362   -0.0392 H   0  0  0  0  0  0
    0.3637   -0.1825   -2.6590 H   0  0  0  0  0  0
   -2.6788    3.3269   -3.1610 H   0  0  0  0  0  0
    2.3402   -4.7975    0.7079 H   0  0  0  0  0  0
   -4.6824    2.6346   -0.7486 H   0  0  0  0  0  0
    1.8403   -2.0830    5.7893 H   0  0  0  0  0  0
    1.7290   -0.6261   -3.4709 H   0  0  0  0  0  0
   -3.4188   -2.4493    1.9465 H   0  0  0  0  0  0
    2.2477   -4.8063   -0.9347 H   0  0  0  0  0  0
   -4.5087    1.3301    0.2243 H   0  0  0  0  0  0
    1.6620    0.8289   -2.7024 H   0  0  0  0  0  0
    0.9162   -2.9401    6.8545 H   0  0  0  0  0  0
   -2.1328   -1.7586    1.1775 H   0  0  0  0  0  0
  1  2  1  0  0  0
  1 42  1  0  0  0
  1 43  1  0  0  0
  1 44  1  0  0  0
  2  9  1  0  0  0
  2  3  1  0  0  0
  2 41  1  0  0  0
  3  4  1  0  0  0
  3 45  1  0  0  0
  3 46  1  0  0  0
  4  5  1  0  0  0
  5  6  1  0  0  0
  5  7  1  0  0  0
  5 14  1  0  0  0
  7  8  1  0  0  0
  7  9  1  0  0  0
  7 13  1  0  0  0
  9 10  1  0  0  0
  9 11  1  0  0  0
 11 12  1  0  0  0
 11 65  1  0  0  0
 11 70  1  0  0  0
 12 47  1  0  0  0
 12 48  1  0  0  0
 12 49  1  0  0  0
 13 50  1  0  0  0
 14 15  1  0  0  0
 15 16  1  0  0  0
 15 24  1  0  0  0
 15 17  1  0  0  0
 17 18  1  0  0  0
 17 19  1  0  0  0
 17 40  1  0  0  0
 19 20  1  0  0  0
 19 51  1  0  0  0
 19 52  1  0  0  0
 20 21  1  0  0  0
 20 22  1  0  0  0
 20 39  1  0  0  0
 22 23  1  0  0  0
 22 24  1  0  0  0
 22 27  1  0  0  0
 24 25  1  0  0  0
 24 26  1  0  0  0
 26 53  1  0  0  0
 27 28  1  0  0  0
 28 29  1  0  0  0
 28 35  1  0  0  0
 28 30  1  0  0  0
 30 31  1  0  0  0
 30 32  1  0  0  0
 30 38  1  0  0  0
 32 33  1  0  0  0
 32 54  1  0  0  0
 32 55  1  0  0  0
 33 34  2  0  0  0
 33 56  1  0  0  0
 34 35  1  0  0  0
 34 36  1  0  0  0
 36 37  1  0  0  0
 36 57  1  0  0  0
 36 58  1  0  0  0
 37 59  1  0  0  0
 37 66  1  0  0  0
 37 72  1  0  0  0
 38 60  1  0  0  0
 38 68  1  0  0  0
 38 73  1  0  0  0
 39 61  1  0  0  0
 39 64  1  0  0  0
 39 69  1  0  0  0
 40 62  1  0  0  0
 40 67  1  0  0  0
 40 71  1  0  0  0
 41 63  1  0  0  0
M  CHG  5  11   1  37   1  38   1  39   1  40   1
M  END
> <s_m_entry_id>
102

> <s_m_entry_name>
biosynth_p1.0.sdf.95

> <s_m_Source_Path>
/Users/Sebastito/Downloads

> <s_m_Source_File>
biosynth_p1.0.sdf.gz

> <i_m_Source_File_Index>
95

> <chiral flag>
1

> <version>
0

> <i_m_ct_enhanced_stereo_status>
0

> <s_m_source_file>
ligprep_vs.maegz

> <i_m_source_file_index>
95

> <i_lp_mmshare_version>
37011

> <r_epik_Ionization_Penalty>
0.793538

> <r_epik_Ionization_Penalty_Charging>
0.79321

> <r_epik_Ionization_Penalty_Neutral>
0.000328124

> <r_epik_State_Penalty>
0.67119

> <r_epik_Charging_Adjusted_Penalty>
1.4644

> <i_epik_Tot_Q>
5

> <i_epik_Tot_abs_Q>
5

> <s_epik_Chemistry_Notes>
This compound contains an acetal/aminal-like group ( X-CH(R)-Y where X, Y are N, S, or O) that may be acid/base labile, releasing an aldehyde.

> <i_f3d_flags>
0

> <s_lp_Force_Field>
OPLS_2005

> <r_lp_Energy>
98.0142

> <b_lp_Chiralities_Consistent>
1

> <s_lp_Variant>
ZINC60184552-1

$$$$
ZINC60184552
                    3D
 Structure written by MMmdl.
 72 74  0  0  1  0            999 V2000
   -2.7624    4.7761   -0.8168 C   0  0  0  0  0  0
   -2.3126    3.3366   -1.1296 C   0  0  1  0  0  0
   -0.7736    3.2951   -1.2745 C   0  0  0  0  0  0
   -0.2810    1.9593   -1.3497 O   0  0  0  0  0  0
   -0.5762    1.1684   -0.2377 C   0  0  1  0  0  0
   -0.2254    1.6746    0.6647 H   0  0  0  0  0  0
   -2.0987    0.9588   -0.1773 C   0  0  1  0  0  0
   -2.3169    0.3587    0.7049 H   0  0  0  0  0  0
   -2.7691    2.3411   -0.0304 C   0  0  2  0  0  0
   -2.4263    2.7417    0.9259 H   0  0  0  0  0  0
   -4.2447    2.2081    0.0334 N   0  3  0  0  0  0
   -4.8712    2.7630    1.2490 C   0  0  0  0  0  0
   -2.5734    0.2535   -1.3099 O   0  0  0  0  0  0
    0.0403   -0.0787   -0.2823 O   0  0  0  0  0  0
    1.4648   -0.0383   -0.2554 C   0  0  2  0  0  0
    1.8459    0.9812   -0.3491 H   0  0  0  0  0  0
    1.9704   -0.8689   -1.4560 C   0  0  1  0  0  0
    3.0576   -0.7870   -1.4919 H   0  0  0  0  0  0
    1.6081   -2.3628   -1.3115 C   0  0  0  0  0  0
    2.1412   -2.9506    0.0131 C   0  0  1  0  0  0
    3.2302   -2.8892   -0.0062 H   0  0  0  0  0  0
    1.6374   -2.1533    1.2383 C   0  0  1  0  0  0
    2.1346   -2.5284    2.1360 H   0  0  0  0  0  0
    1.9963   -0.6615    1.0549 C   0  0  2  0  0  0
    3.0847   -0.6146    0.9965 H   0  0  0  0  0  0
    1.6972    0.1160    2.1963 O   0  0  0  0  0  0
    0.2219   -2.3059    1.3123 O   0  0  0  0  0  0
   -0.2363   -2.9109    2.4803 C   0  0  2  0  0  0
    0.2990   -3.8550    2.6032 H   0  0  0  0  0  0
   -1.7450   -3.2037    2.3230 C   0  0  1  0  0  0
   -1.8629   -3.8609    1.4608 H   0  0  0  0  0  0
   -2.2148   -3.9572    3.5786 C   0  0  0  0  0  0
   -1.6885   -3.2866    4.8274 C   0  0  0  0  0  0
   -0.6524   -2.4288    4.7949 C   0  0  0  0  0  0
    0.0142   -2.1383    3.6269 O   0  0  0  0  0  0
   -0.1157   -1.6724    5.9916 C   0  0  0  0  0  0
    1.1422   -2.2785    6.4573 N   0  3  0  0  0  0
   -2.5299   -1.9791    2.0902 N   0  0  0  0  0  0
    1.8183   -4.3853    0.1306 N   0  3  0  0  0  0
    1.4758   -0.3176   -2.7318 N   0  3  0  0  0  0
   -2.8707    3.0123   -2.3904 O   0  0  0  0  0  0
   -2.3823    5.1081    0.1499 H   0  0  0  0  0  0
   -3.8488    4.8657   -0.7919 H   0  0  0  0  0  0
   -2.3975    5.4774   -1.5683 H   0  0  0  0  0  0
   -0.4523    3.8437   -2.1608 H   0  0  0  0  0  0
   -0.3012    3.7871   -0.4226 H   0  0  0  0  0  0
   -5.9526    2.6370    1.2000 H   0  0  0  0  0  0
   -4.6566    3.8274    1.3484 H   0  0  0  0  0  0
   -4.5073    2.2492    2.1394 H   0  0  0  0  0  0
   -2.4036    0.7746   -2.0807 H   0  0  0  0  0  0
    0.5255   -2.4903   -1.3656 H   0  0  0  0  0  0
    2.0222   -2.9217   -2.1520 H   0  0  0  0  0  0
    2.0771    0.9747    2.0862 H   0  0  0  0  0  0
   -3.3041   -4.0001    3.6156 H   0  0  0  0  0  0
   -1.8573   -4.9872    3.5659 H   0  0  0  0  0  0
   -2.1874   -3.5152    5.7580 H   0  0  0  0  0  0
    0.0626   -0.6323    5.7171 H   0  0  0  0  0  0
   -0.8452   -1.6785    6.8022 H   0  0  0  0  0  0
    1.4877   -1.7656    7.2561 H   0  0  0  0  0  0
   -3.5194   -2.2079    2.0026 H   0  0  0  0  0  0
    0.8154   -4.5061    0.1525 H   0  0  0  0  0  0
    0.4666   -0.3632   -2.7504 H   0  0  0  0  0  0
   -2.5704    3.6453   -3.0257 H   0  0  0  0  0  0
    2.2204   -4.7569    0.9795 H   0  0  0  0  0  0
   -4.6368    2.6679   -0.7764 H   0  0  0  0  0  0
    1.8270   -2.2469    5.7156 H   0  0  0  0  0  0
    1.8505   -0.8513   -3.5033 H   0  0  0  0  0  0
   -2.4457   -1.3521    2.8889 H   0  0  0  0  0  0
    2.1972   -4.8842   -0.6622 H   0  0  0  0  0  0
   -4.4732    1.2254   -0.0213 H   0  0  0  0  0  0
    1.7665    0.6461   -2.8194 H   0  0  0  0  0  0
    0.9759   -3.2389    6.7225 H   0  0  0  0  0  0
  1  2  1  0  0  0
  1 42  1  0  0  0
  1 43  1  0  0  0
  1 44  1  0  0  0
  2  9  1  0  0  0
  2  3  1  0  0  0
  2 41  1  0  0  0
  3  4  1  0  0  0
  3 45  1  0  0  0
  3 46  1  0  0  0
  4  5  1  0  0  0
  5  6  1  0  0  0
  5  7  1  0  0  0
  5 14  1  0  0  0
  7  8  1  0  0  0
  7  9  1  0  0  0
  7 13  1  0  0  0
  9 10  1  0  0  0
  9 11  1  0  0  0
 11 12  1  0  0  0
 11 65  1  0  0  0
 11 70  1  0  0  0
 12 47  1  0  0  0
 12 48  1  0  0  0
 12 49  1  0  0  0
 13 50  1  0  0  0
 14 15  1  0  0  0
 15 16  1  0  0  0
 15 24  1  0  0  0
 15 17  1  0  0  0
 17 18  1  0  0  0
 17 19  1  0  0  0
 17 40  1  0  0  0
 19 20  1  0  0  0
 19 51  1  0  0  0
 19 52  1  0  0  0
 20 21  1  0  0  0
 20 22  1  0  0  0
 20 39  1  0  0  0
 22 23  1  0  0  0
 22 24  1  0  0  0
 22 27  1  0  0  0
 24 25  1  0  0  0
 24 26  1  0  0  0
 26 53  1  0  0  0
 27 28  1  0  0  0
 28 29  1  0  0  0
 28 35  1  0  0  0
 28 30  1  0  0  0
 30 31  1  0  0  0
 30 32  1  0  0  0
 30 38  1  0  0  0
 32 33  1  0  0  0
 32 54  1  0  0  0
 32 55  1  0  0  0
 33 34  2  0  0  0
 33 56  1  0  0  0
 34 35  1  0  0  0
 34 36  1  0  0  0
 36 37  1  0  0  0
 36 57  1  0  0  0
 36 58  1  0  0  0
 37 59  1  0  0  0
 37 66  1  0  0  0
 37 72  1  0  0  0
 38 60  1  0  0  0
 38 68  1  0  0  0
 39 61  1  0  0  0
 39 64  1  0  0  0
 39 69  1  0  0  0
 40 62  1  0  0  0
 40 67  1  0  0  0
 40 71  1  0  0  0
 41 63  1  0  0  0
M  CHG  4  11   1  37   1  39   1  40   1
M  END
> <s_m_entry_id>
102

> <s_m_entry_name>
biosynth_p1.0.sdf.95

> <s_m_Source_Path>
/Users/Sebastito/Downloads

> <s_m_Source_File>
biosynth_p1.0.sdf.gz

> <i_m_Source_File_Index>
95

> <chiral flag>
1

> <version>
0

> <i_m_ct_enhanced_stereo_status>
0

> <s_m_source_file>
ligprep_vs.maegz

> <i_m_source_file_index>
95

> <i_lp_mmshare_version>
37011

> <r_epik_Ionization_Penalty>
0.713919

> <r_epik_Ionization_Penalty_Charging>
0.276887

> <r_epik_Ionization_Penalty_Neutral>
0.437032

> <r_epik_State_Penalty>
0.777653

> <r_epik_Charging_Adjusted_Penalty>
1.05454

> <i_epik_Tot_Q>
4

> <i_epik_Tot_abs_Q>
4

> <s_epik_Chemistry_Notes>
This compound contains an acetal/aminal-like group ( X-CH(R)-Y where X, Y are N, S, or O) that may be acid/base labile, releasing an aldehyde.

> <i_f3d_flags>
0

> <s_lp_Force_Field>
OPLS_2005

> <r_lp_Energy>
77.2008

> <b_lp_Chiralities_Consistent>
1

> <s_lp_Variant>
ZINC60184552-2

$$$$
ZINC60184552
                    3D
 Structure written by MMmdl.
 72 74  0  0  1  0            999 V2000
   -2.5101    4.5884   -0.0467 C   0  0  0  0  0  0
   -2.1346    3.1471   -0.4412 C   0  0  1  0  0  0
   -0.6318    3.0814   -0.7987 C   0  0  0  0  0  0
   -0.1863    1.7389   -0.9731 O   0  0  0  0  0  0
   -0.3455    0.9238    0.1472 C   0  0  1  0  0  0
    0.1411    1.3967    1.0035 H   0  0  0  0  0  0
   -1.8482    0.7469    0.4278 C   0  0  1  0  0  0
   -1.9397    0.1273    1.3181 H   0  0  0  0  0  0
   -2.4583    2.1436    0.6963 C   0  0  2  0  0  0
   -1.9852    2.5340    1.5995 H   0  0  0  0  0  0
   -3.9142    2.0790    0.9738 N   0  3  0  0  0  0
   -4.2852    1.4876    2.2746 C   0  0  0  0  0  0
   -2.5030    0.0676   -0.6276 O   0  0  0  0  0  0
    0.2229   -0.3346   -0.0245 O   0  0  0  0  0  0
    1.6480   -0.3420   -0.0566 C   0  0  2  0  0  0
    2.0641    0.6682   -0.0403 H   0  0  0  0  0  0
    2.1025   -1.0423   -1.3577 C   0  0  1  0  0  0
    3.1909   -0.9867   -1.4062 H   0  0  0  0  0  0
    1.7061   -2.5352   -1.3821 C   0  0  0  0  0  0
    2.2231   -3.2830   -0.1313 C   0  0  1  0  0  0
    3.3133   -3.2435   -0.1407 H   0  0  0  0  0  0
    1.7240   -2.6201    1.1739 C   0  0  1  0  0  0
    2.1727   -3.1426    2.0207 H   0  0  0  0  0  0
    2.1808   -1.1385    1.1534 C   0  0  2  0  0  0
    3.2665   -1.1574    1.0461 H   0  0  0  0  0  0
    2.0197   -0.4583    2.3792 O   0  0  0  0  0  0
    0.3027   -2.7806    1.1632 O   0  0  0  0  0  0
   -0.3433   -2.7711    2.3994 C   0  0  2  0  0  0
    0.2666   -3.3069    3.1298 H   0  0  0  0  0  0
   -1.6927   -3.5065    2.2293 C   0  0  1  0  0  0
   -1.4948   -4.5178    1.8722 H   0  0  0  0  0  0
   -2.3779   -3.5662    3.6035 C   0  0  0  0  0  0
   -2.3367   -2.2105    4.2694 C   0  0  0  0  0  0
   -1.4729   -1.2529    3.8877 C   0  0  0  0  0  0
   -0.5487   -1.4700    2.8869 O   0  0  0  0  0  0
   -1.4253    0.1333    4.5076 C   0  0  0  0  0  0
   -0.5378    1.0406    3.8063 N   0  0  0  0  0  0
   -2.5467   -2.8294    1.2330 N   0  3  0  0  0  0
    1.8736   -4.7160   -0.1773 N   0  3  0  0  0  0
    1.6094   -0.3310   -2.5523 N   0  3  0  0  0  0
   -2.8678    2.8511   -1.6163 O   0  0  0  0  0  0
   -1.9800    4.9036    0.8527 H   0  0  0  0  0  0
   -3.5779    4.6921    0.1489 H   0  0  0  0  0  0
   -2.2556    5.2951   -0.8377 H   0  0  0  0  0  0
   -0.4237    3.6460   -1.7086 H   0  0  0  0  0  0
   -0.0349    3.5424   -0.0098 H   0  0  0  0  0  0
   -5.3665    1.5342    2.4045 H   0  0  0  0  0  0
   -3.8228    2.0366    3.0955 H   0  0  0  0  0  0
   -3.9854    0.4418    2.3389 H   0  0  0  0  0  0
   -2.4426    0.5993   -1.4083 H   0  0  0  0  0  0
    0.6213   -2.6297   -1.4522 H   0  0  0  0  0  0
    2.1106   -3.0038   -2.2805 H   0  0  0  0  0  0
    2.5329   -0.8974    3.0411 H   0  0  0  0  0  0
   -3.4127   -3.8956    3.5028 H   0  0  0  0  0  0
   -1.8772   -4.2829    4.2553 H   0  0  0  0  0  0
   -3.0336   -2.0323    5.0757 H   0  0  0  0  0  0
   -2.4296    0.5565    4.5172 H   0  0  0  0  0  0
   -1.0999    0.0501    5.5450 H   0  0  0  0  0  0
    0.4097    0.6902    3.8385 H   0  0  0  0  0  0
   -2.7422   -1.8889    1.5436 H   0  0  0  0  0  0
    0.8694   -4.8228   -0.1672 H   0  0  0  0  0  0
    0.5992   -0.3372   -2.5593 H   0  0  0  0  0  0
   -2.6563    3.4958   -2.2755 H   0  0  0  0  0  0
    2.2693   -5.1885    0.6234 H   0  0  0  0  0  0
   -4.2698    3.0245    0.9594 H   0  0  0  0  0  0
   -0.7984    1.1036    2.8345 H   0  0  0  0  0  0
    1.9540   -0.7847   -3.3867 H   0  0  0  0  0  0
   -3.4146   -3.3368    1.1325 H   0  0  0  0  0  0
    2.2449   -5.1287   -1.0217 H   0  0  0  0  0  0
   -4.3615    1.5624    0.2296 H   0  0  0  0  0  0
    1.9353    0.6253   -2.5355 H   0  0  0  0  0  0
   -2.0706   -2.7969    0.3431 H   0  0  0  0  0  0
  1  2  1  0  0  0
  1 42  1  0  0  0
  1 43  1  0  0  0
  1 44  1  0  0  0
  2  9  1  0  0  0
  2  3  1  0  0  0
  2 41  1  0  0  0
  3  4  1  0  0  0
  3 45  1  0  0  0
  3 46  1  0  0  0
  4  5  1  0  0  0
  5  6  1  0  0  0
  5  7  1  0  0  0
  5 14  1  0  0  0
  7  8  1  0  0  0
  7  9  1  0  0  0
  7 13  1  0  0  0
  9 10  1  0  0  0
  9 11  1  0  0  0
 11 12  1  0  0  0
 11 65  1  0  0  0
 11 70  1  0  0  0
 12 47  1  0  0  0
 12 48  1  0  0  0
 12 49  1  0  0  0
 13 50  1  0  0  0
 14 15  1  0  0  0
 15 16  1  0  0  0
 15 24  1  0  0  0
 15 17  1  0  0  0
 17 18  1  0  0  0
 17 19  1  0  0  0
 17 40  1  0  0  0
 19 20  1  0  0  0
 19 51  1  0  0  0
 19 52  1  0  0  0
 20 21  1  0  0  0
 20 22  1  0  0  0
 20 39  1  0  0  0
 22 23  1  0  0  0
 22 24  1  0  0  0
 22 27  1  0  0  0
 24 25  1  0  0  0
 24 26  1  0  0  0
 26 53  1  0  0  0
 27 28  1  0  0  0
 28 29  1  0  0  0
 28 35  1  0  0  0
 28 30  1  0  0  0
 30 31  1  0  0  0
 30 32  1  0  0  0
 30 38  1  0  0  0
 32 33  1  0  0  0
 32 54  1  0  0  0
 32 55  1  0  0  0
 33 34  2  0  0  0
 33 56  1  0  0  0
 34 35  1  0  0  0
 34 36  1  0  0  0
 36 37  1  0  0  0
 36 57  1  0  0  0
 36 58  1  0  0  0
 37 59  1  0  0  0
 37 66  1  0  0  0
 38 60  1  0  0  0
 38 68  1  0  0  0
 38 72  1  0  0  0
 39 61  1  0  0  0
 39 64  1  0  0  0
 39 69  1  0  0  0
 40 62  1  0  0  0
 40 67  1  0  0  0
 40 71  1  0  0  0
 41 63  1  0  0  0
M  CHG  4  11   1  38   1  39   1  40   1
M  END
> <s_m_entry_id>
102

> <s_m_entry_name>
biosynth_p1.0.sdf.95

> <s_m_Source_Path>
/Users/Sebastito/Downloads

> <s_m_Source_File>
biosynth_p1.0.sdf.gz

> <i_m_Source_File_Index>
95

> <chiral flag>
1

> <version>
0

> <i_m_ct_enhanced_stereo_status>
0

> <s_m_source_file>
ligprep_vs.maegz

> <i_m_source_file_index>
95

> <i_lp_mmshare_version>
37011

> <r_epik_Ionization_Penalty>
1.02815

> <r_epik_Ionization_Penalty_Charging>
0.339125

> <r_epik_Ionization_Penalty_Neutral>
0.68902

> <r_epik_State_Penalty>
1.12491

> <r_epik_Charging_Adjusted_Penalty>
1.46403

> <i_epik_Tot_Q>
4

> <i_epik_Tot_abs_Q>
4

> <s_epik_Chemistry_Notes>
This compound contains an acetal/aminal-like group ( X-CH(R)-Y where X, Y are N, S, or O) that may be acid/base labile, releasing an aldehyde.

> <i_f3d_flags>
0

> <s_lp_Force_Field>
OPLS_2005

> <r_lp_Energy>
74.0604

> <b_lp_Chiralities_Consistent>
1

> <s_lp_Variant>
ZINC60184552-3

$$$$
ZINC60184552
                    3D
 Structure written by MMmdl.
 71 73  0  0  1  0            999 V2000
   -2.8043    4.5063    0.3491 C   0  0  0  0  0  0
   -2.3266    3.1764   -0.2651 C   0  0  1  0  0  0
   -0.7941    3.2158   -0.4598 C   0  0  0  0  0  0
   -0.2775    1.9418   -0.8330 O   0  0  0  0  0  0
   -0.5016    0.9302    0.1010 C   0  0  1  0  0  0
   -0.1155    1.2488    1.0712 H   0  0  0  0  0  0
   -2.0149    0.6628    0.1895 C   0  0  1  0  0  0
   -2.1627   -0.1022    0.9490 H   0  0  0  0  0  0
   -2.7256    1.9676    0.6216 C   0  0  2  0  0  0
   -2.3863    2.1994    1.6321 H   0  0  0  0  0  0
   -4.1990    1.8059    0.6871 N   0  3  0  0  0  0
   -4.7008    0.9505    1.7808 C   0  0  0  0  0  0
   -2.5293    0.1564   -1.0279 O   0  0  0  0  0  0
    0.1317   -0.2607   -0.2412 O   0  0  0  0  0  0
    1.5562   -0.2039   -0.2471 C   0  0  2  0  0  0
    1.9221    0.8225   -0.3215 H   0  0  0  0  0  0
    2.0353   -0.9855   -1.4904 C   0  0  1  0  0  0
    3.1200   -0.8887   -1.5551 H   0  0  0  0  0  0
    1.6978   -2.4902   -1.3913 C   0  0  0  0  0  0
    2.2479   -3.1186   -0.0897 C   0  0  1  0  0  0
    3.3367   -3.0528   -0.1156 H   0  0  0  0  0  0
    1.7437   -2.3668    1.1639 C   0  0  1  0  0  0
    2.2216   -2.8009    2.0439 H   0  0  0  0  0  0
    2.1379   -0.8765    1.0154 C   0  0  2  0  0  0
    3.2214   -0.8638    0.8879 H   0  0  0  0  0  0
    1.9798   -0.1082    2.1876 O   0  0  0  0  0  0
    0.3329   -2.5807    1.1863 O   0  0  0  0  0  0
   -0.3081   -2.4730    2.4192 C   0  0  2  0  0  0
    0.3347   -2.8945    3.1947 H   0  0  0  0  0  0
   -1.6074   -3.3068    2.3413 C   0  0  1  0  0  0
   -1.3175   -4.3389    2.1417 H   0  0  0  0  0  0
   -2.2943   -3.2563    3.7154 C   0  0  0  0  0  0
   -2.3187   -1.8420    4.2456 C   0  0  0  0  0  0
   -1.5140   -0.8810    3.7597 C   0  0  0  0  0  0
   -0.5800   -1.1439    2.7813 O   0  0  0  0  0  0
   -1.5283    0.5587    4.2394 C   0  0  0  0  0  0
   -0.2461    1.2147    4.0761 N   0  0  0  0  0  0
   -2.4978   -2.8570    1.2557 N   0  0  0  0  0  0
    1.9284   -4.5571   -0.0132 N   0  3  0  0  0  0
    1.4981   -0.3916   -2.7296 N   0  3  0  0  0  0
   -2.9191    3.0991   -1.5491 O   0  0  0  0  0  0
   -2.3895    4.6534    1.3470 H   0  0  0  0  0  0
   -3.8907    4.5460    0.4368 H   0  0  0  0  0  0
   -2.4967    5.3580   -0.2593 H   0  0  0  0  0  0
   -0.5177    3.9476   -1.2200 H   0  0  0  0  0  0
   -0.3027    3.5318    0.4622 H   0  0  0  0  0  0
   -5.7901    0.9239    1.7531 H   0  0  0  0  0  0
   -4.3992    1.3429    2.7516 H   0  0  0  0  0  0
   -4.3396   -0.0735    1.6874 H   0  0  0  0  0  0
   -2.0899   -0.6573   -1.2234 H   0  0  0  0  0  0
    0.6166   -2.6303   -1.4431 H   0  0  0  0  0  0
    2.1129   -3.0140   -2.2536 H   0  0  0  0  0  0
    2.4894   -0.5012    2.8802 H   0  0  0  0  0  0
   -3.3119   -3.6433    3.6519 H   0  0  0  0  0  0
   -1.7616   -3.8802    4.4338 H   0  0  0  0  0  0
   -3.0198   -1.6229    5.0378 H   0  0  0  0  0  0
   -2.2823    1.1110    3.6820 H   0  0  0  0  0  0
   -1.8129    0.5943    5.2915 H   0  0  0  0  0  0
    0.4487    0.7580    4.6500 H   0  0  0  0  0  0
   -3.3412   -3.4292    1.2326 H   0  0  0  0  0  0
    0.9256   -4.6784    0.0183 H   0  0  0  0  0  0
    0.4890   -0.4401   -2.7180 H   0  0  0  0  0  0
   -2.6301    3.8397   -2.0609 H   0  0  0  0  0  0
    2.3386   -4.9529    0.8209 H   0  0  0  0  0  0
   -4.6035    2.7236    0.8065 H   0  0  0  0  0  0
    0.0668    1.1376    3.1193 H   0  0  0  0  0  0
    1.8497   -0.8961   -3.5311 H   0  0  0  0  0  0
   -2.8012   -1.8996    1.4255 H   0  0  0  0  0  0
    2.2983   -5.0321   -0.8245 H   0  0  0  0  0  0
   -4.5138    1.4336   -0.1980 H   0  0  0  0  0  0
    1.7828    0.5756   -2.7927 H   0  0  0  0  0  0
  1  2  1  0  0  0
  1 42  1  0  0  0
  1 43  1  0  0  0
  1 44  1  0  0  0
  2  9  1  0  0  0
  2  3  1  0  0  0
  2 41  1  0  0  0
  3  4  1  0  0  0
  3 45  1  0  0  0
  3 46  1  0  0  0
  4  5  1  0  0  0
  5  6  1  0  0  0
  5  7  1  0  0  0
  5 14  1  0  0  0
  7  8  1  0  0  0
  7  9  1  0  0  0
  7 13  1  0  0  0
  9 10  1  0  0  0
  9 11  1  0  0  0
 11 12  1  0  0  0
 11 65  1  0  0  0
 11 70  1  0  0  0
 12 47  1  0  0  0
 12 48  1  0  0  0
 12 49  1  0  0  0
 13 50  1  0  0  0
 14 15  1  0  0  0
 15 16  1  0  0  0
 15 24  1  0  0  0
 15 17  1  0  0  0
 17 18  1  0  0  0
 17 19  1  0  0  0
 17 40  1  0  0  0
 19 20  1  0  0  0
 19 51  1  0  0  0
 19 52  1  0  0  0
 20 21  1  0  0  0
 20 22  1  0  0  0
 20 39  1  0  0  0
 22 23  1  0  0  0
 22 24  1  0  0  0
 22 27  1  0  0  0
 24 25  1  0  0  0
 24 26  1  0  0  0
 26 53  1  0  0  0
 27 28  1  0  0  0
 28 29  1  0  0  0
 28 35  1  0  0  0
 28 30  1  0  0  0
 30 31  1  0  0  0
 30 32  1  0  0  0
 30 38  1  0  0  0
 32 33  1  0  0  0
 32 54  1  0  0  0
 32 55  1  0  0  0
 33 34  2  0  0  0
 33 56  1  0  0  0
 34 35  1  0  0  0
 34 36  1  0  0  0
 36 37  1  0  0  0
 36 57  1  0  0  0
 36 58  1  0  0  0
 37 59  1  0  0  0
 37 66  1  0  0  0
 38 60  1  0  0  0
 38 68  1  0  0  0
 39 61  1  0  0  0
 39 64  1  0  0  0
 39 69  1  0  0  0
 40 62  1  0  0  0
 40 67  1  0  0  0
 40 71  1  0  0  0
 41 63  1  0  0  0
M  CHG  3  11   1  39   1  40   1
M  END
> <s_m_entry_id>
102

> <s_m_entry_name>
biosynth_p1.0.sdf.95

> <s_m_Source_Path>
/Users/Sebastito/Downloads

> <s_m_Source_File>
biosynth_p1.0.sdf.gz

> <i_m_Source_File_Index>
95

> <chiral flag>
1

> <version>
0

> <i_m_ct_enhanced_stereo_status>
0

> <s_m_source_file>
ligprep_vs.maegz

> <i_m_source_file_index>
95

> <i_lp_mmshare_version>
37011

> <r_epik_Ionization_Penalty>
2.07721

> <r_epik_Ionization_Penalty_Charging>
0.163818

> <r_epik_Ionization_Penalty_Neutral>
1.91339

> <r_epik_State_Penalty>
1.83326

> <r_epik_Charging_Adjusted_Penalty>
1.99708

> <i_epik_Tot_Q>
3

> <i_epik_Tot_abs_Q>
3

> <s_epik_Chemistry_Notes>
This compound contains an acetal/aminal-like group ( X-CH(R)-Y where X, Y are N, S, or O) that may be acid/base labile, releasing an aldehyde.

> <i_f3d_flags>
0

> <s_lp_Force_Field>
OPLS_2005

> <r_lp_Energy>
63.2565

> <b_lp_Chiralities_Consistent>
1

> <s_lp_Variant>
ZINC60184552-4

$$$$
ZINC60184552
                    3D
 Structure written by MMmdl.
 72 74  0  0  1  0            999 V2000
   -3.1291    4.4867   -1.8385 C   0  0  0  0  0  0
   -2.5257    3.0688   -1.8584 C   0  0  1  0  0  0
   -0.9920    3.1567   -1.6918 C   0  0  0  0  0  0
   -0.4079    1.8730   -1.4938 O   0  0  0  0  0  0
   -0.8638    1.1917   -0.3654 C   0  0  1  0  0  0
   -0.7304    1.8274    0.5134 H   0  0  0  0  0  0
   -2.3535    0.8537   -0.5551 C   0  0  1  0  0  0
   -2.6860    0.3522    0.3536 H   0  0  0  0  0  0
   -3.1368    2.1764   -0.7459 C   0  0  2  0  0  0
   -3.0488    2.7375    0.1864 H   0  0  0  0  0  0
   -4.5848    1.9447   -0.9720 N   0  3  0  0  0  0
   -5.3429    1.4710    0.2028 C   0  0  0  0  0  0
   -2.5524   -0.0410   -1.6340 O   0  0  0  0  0  0
   -0.1708    0.0054   -0.1357 O   0  0  0  0  0  0
    1.2122    0.1713    0.1744 C   0  0  2  0  0  0
    1.4999    1.2249    0.1974 H   0  0  0  0  0  0
    2.0441   -0.5551   -0.9089 C   0  0  1  0  0  0
    3.0996   -0.3767   -0.6985 H   0  0  0  0  0  0
    1.8077   -2.0791   -0.8835 C   0  0  0  0  0  0
    2.1276   -2.6628    0.5068 C   0  0  1  0  0  0
    3.1670   -2.4056    0.7156 H   0  0  0  0  0  0
    1.2834   -1.9892    1.6156 C   0  0  1  0  0  0
    1.6143   -2.3481    2.5927 H   0  0  0  0  0  0
    1.5132   -0.4621    1.5532 C   0  0  2  0  0  0
    2.5762   -0.3036    1.7420 H   0  0  0  0  0  0
    0.8795    0.2218    2.6162 O   0  0  0  0  0  0
   -0.1018   -2.2527    1.3941 O   0  0  0  0  0  0
   -0.6500   -3.2051    2.2520 C   0  0  2  0  0  0
   -0.0451   -4.1122    2.2044 H   0  0  0  0  0  0
   -2.0866   -3.5153    1.7769 C   0  0  1  0  0  0
   -2.0421   -3.8737    0.7478 H   0  0  0  0  0  0
   -2.6651   -4.6129    2.6862 C   0  0  0  0  0  0
   -2.3752   -4.3128    4.1401 C   0  0  0  0  0  0
   -1.4309   -3.4295    4.5128 C   0  0  0  0  0  0
   -0.6503   -2.7716    3.5898 O   0  0  0  0  0  0
   -1.0766   -3.0906    5.9473 C   0  0  0  0  0  0
   -1.2684   -1.6552    6.2117 N   0  3  0  0  0  0
   -2.9221   -2.2998    1.8018 N   0  3  0  0  0  0
    2.0492   -4.1311    0.5368 N   0  0  0  0  0  0
    1.8040    0.0029   -2.2526 N   0  3  0  0  0  0
   -2.7891    2.5468   -3.1483 O   0  0  0  0  0  0
   -2.9684    4.9730   -0.8757 H   0  0  0  0  0  0
   -4.2036    4.4736   -2.0238 H   0  0  0  0  0  0
   -2.6764    5.1208   -2.6021 H   0  0  0  0  0  0
   -0.5326    3.6249   -2.5633 H   0  0  0  0  0  0
   -0.7389    3.7864   -0.8372 H   0  0  0  0  0  0
   -6.3990    1.3840   -0.0530 H   0  0  0  0  0  0
   -5.2525    2.1725    1.0326 H   0  0  0  0  0  0
   -4.9966    0.4913    0.5318 H   0  0  0  0  0  0
   -1.9824   -0.7860   -1.5196 H   0  0  0  0  0  0
    0.7773   -2.3084   -1.1600 H   0  0  0  0  0  0
    2.4402   -2.5572   -1.6329 H   0  0  0  0  0  0
    1.2178    1.1041    2.6505 H   0  0  0  0  0  0
   -3.7411   -4.7105    2.5370 H   0  0  0  0  0  0
   -2.2224   -5.5804    2.4462 H   0  0  0  0  0  0
   -2.9488   -4.8529    4.8797 H   0  0  0  0  0  0
   -1.6902   -3.6700    6.6382 H   0  0  0  0  0  0
   -0.0350   -3.3544    6.1334 H   0  0  0  0  0  0
   -1.0140   -1.4551    7.1690 H   0  0  0  0  0  0
   -2.9750   -1.9501    2.7474 H   0  0  0  0  0  0
    1.1137   -4.4447    0.2827 H   0  0  0  0  0  0
    0.8343   -0.1256   -2.5047 H   0  0  0  0  0  0
   -2.4013    3.1199   -3.7929 H   0  0  0  0  0  0
    2.6864   -4.5365   -0.1484 H   0  0  0  0  0  0
   -4.9926    2.8218   -1.2636 H   0  0  0  0  0  0
   -2.2363   -1.4088    6.0645 H   0  0  0  0  0  0
    2.3918   -0.4689   -2.9256 H   0  0  0  0  0  0
   -3.8499   -2.5229    1.4706 H   0  0  0  0  0  0
    2.0206    0.9896   -2.2537 H   0  0  0  0  0  0
   -4.6875    1.2826   -1.7286 H   0  0  0  0  0  0
   -0.6816   -1.1166    5.5905 H   0  0  0  0  0  0
   -2.5060   -1.6004    1.2044 H   0  0  0  0  0  0
  1  2  1  0  0  0
  1 42  1  0  0  0
  1 43  1  0  0  0
  1 44  1  0  0  0
  2  9  1  0  0  0
  2  3  1  0  0  0
  2 41  1  0  0  0
  3  4  1  0  0  0
  3 45  1  0  0  0
  3 46  1  0  0  0
  4  5  1  0  0  0
  5  6  1  0  0  0
  5  7  1  0  0  0
  5 14  1  0  0  0
  7  8  1  0  0  0
  7  9  1  0  0  0
  7 13  1  0  0  0
  9 10  1  0  0  0
  9 11  1  0  0  0
 11 12  1  0  0  0
 11 65  1  0  0  0
 11 70  1  0  0  0
 12 47  1  0  0  0
 12 48  1  0  0  0
 12 49  1  0  0  0
 13 50  1  0  0  0
 14 15  1  0  0  0
 15 16  1  0  0  0
 15 24  1  0  0  0
 15 17  1  0  0  0
 17 18  1  0  0  0
 17 19  1  0  0  0
 17 40  1  0  0  0
 19 20  1  0  0  0
 19 51  1  0  0  0
 19 52  1  0  0  0
 20 21  1  0  0  0
 20 22  1  0  0  0
 20 39  1  0  0  0
 22 23  1  0  0  0
 22 24  1  0  0  0
 22 27  1  0  0  0
 24 25  1  0  0  0
 24 26  1  0  0  0
 26 53  1  0  0  0
 27 28  1  0  0  0
 28 29  1  0  0  0
 28 35  1  0  0  0
 28 30  1  0  0  0
 30 31  1  0  0  0
 30 32  1  0  0  0
 30 38  1  0  0  0
 32 33  1  0  0  0
 32 54  1  0  0  0
 32 55  1  0  0  0
 33 34  2  0  0  0
 33 56  1  0  0  0
 34 35  1  0  0  0
 34 36  1  0  0  0
 36 37  1  0  0  0
 36 57  1  0  0  0
 36 58  1  0  0  0
 37 59  1  0  0  0
 37 66  1  0  0  0
 37 71  1  0  0  0
 38 60  1  0  0  0
 38 68  1  0  0  0
 38 72  1  0  0  0
 39 61  1  0  0  0
 39 64  1  0  0  0
 40 62  1  0  0  0
 40 67  1  0  0  0
 40 69  1  0  0  0
 41 63  1  0  0  0
M  CHG  4  11   1  37   1  38   1  40   1
M  END
> <s_m_entry_id>
102

> <s_m_entry_name>
biosynth_p1.0.sdf.95

> <s_m_Source_Path>
/Users/Sebastito/Downloads

> <s_m_Source_File>
biosynth_p1.0.sdf.gz

> <i_m_Source_File_Index>
95

> <chiral flag>
1

> <version>
0

> <i_m_ct_enhanced_stereo_status>
0

> <s_m_source_file>
ligprep_vs.maegz

> <i_m_source_file_index>
95

> <i_lp_mmshare_version>
37011

> <r_epik_Ionization_Penalty>
1.85001

> <r_epik_Ionization_Penalty_Charging>
0.58264

> <r_epik_Ionization_Penalty_Neutral>
1.26737

> <r_epik_State_Penalty>
1.93692

> <r_epik_Charging_Adjusted_Penalty>
2.51956

> <i_epik_Tot_Q>
4

> <i_epik_Tot_abs_Q>
4

> <s_epik_Chemistry_Notes>
This compound contains an acetal/aminal-like group ( X-CH(R)-Y where X, Y are N, S, or O) that may be acid/base labile, releasing an aldehyde.

> <i_f3d_flags>
0

> <s_lp_Force_Field>
OPLS_2005

> <r_lp_Energy>
81.203

> <b_lp_Chiralities_Consistent>
1

> <s_lp_Variant>
ZINC60184552-5

$$$$
ZINC60184552
                    3D
 Structure written by MMmdl.
 72 74  0  0  1  0            999 V2000
   -3.2067    4.3903   -1.3728 C   0  0  0  0  0  0
   -2.5851    2.9855   -1.4963 C   0  0  1  0  0  0
   -1.0485    3.0871   -1.3735 C   0  0  0  0  0  0
   -0.4431    1.8026   -1.2726 O   0  0  0  0  0  0
   -0.8504    1.0483   -0.1737 C   0  0  1  0  0  0
   -0.6984    1.6348    0.7357 H   0  0  0  0  0  0
   -2.3403    0.7005   -0.3330 C   0  0  1  0  0  0
   -2.6331    0.1467    0.5582 H   0  0  0  0  0  0
   -3.1482    2.0192   -0.4212 C   0  0  2  0  0  0
   -3.0397    2.5255    0.5399 H   0  0  0  0  0  0
   -4.5988    1.7789   -0.6183 N   0  3  0  0  0  0
   -5.3120    1.2046    0.5394 C   0  0  0  0  0  0
   -2.5641   -0.1360   -1.4525 O   0  0  0  0  0  0
   -0.1327   -0.1390   -0.0342 O   0  0  0  0  0  0
    1.2528    0.0382    0.2595 C   0  0  2  0  0  0
    1.5102    1.0895    0.4083 H   0  0  0  0  0  0
    2.0977   -0.5311   -0.9050 C   0  0  1  0  0  0
    3.1424   -0.3957   -0.6217 H   0  0  0  0  0  0
    1.8882   -2.0489   -1.0718 C   0  0  0  0  0  0
    2.2333   -2.7992    0.2306 C   0  0  1  0  0  0
    3.2871   -2.6221    0.4506 H   0  0  0  0  0  0
    1.4008   -2.2796    1.4247 C   0  0  1  0  0  0
    1.7626   -2.7579    2.3376 H   0  0  0  0  0  0
    1.5926   -0.7476    1.5456 C   0  0  2  0  0  0
    2.6561   -0.5889    1.7308 H   0  0  0  0  0  0
    0.9764   -0.1977    2.6931 O   0  0  0  0  0  0
    0.0326   -2.5952    1.1660 O   0  0  0  0  0  0
   -0.5958   -3.3177    2.1775 C   0  0  2  0  0  0
   -0.0012   -4.2104    2.3840 H   0  0  0  0  0  0
   -1.9961   -3.7392    1.6757 C   0  0  1  0  0  0
   -1.8734   -4.3465    0.7780 H   0  0  0  0  0  0
   -2.6717   -4.5718    2.7782 C   0  0  0  0  0  0
   -2.5088   -3.9063    4.1259 C   0  0  0  0  0  0
   -1.5702   -2.9691    4.3500 C   0  0  0  0  0  0
   -0.6867   -2.5796    3.3697 O   0  0  0  0  0  0
   -1.3521   -2.2568    5.6710 C   0  0  0  0  0  0
   -1.3249   -0.7961    5.4845 N   0  3  0  0  0  0
   -2.8089   -2.5619    1.3165 N   0  3  0  0  0  0
    2.0973   -4.2579    0.0617 N   0  3  0  0  0  0
    1.9092    0.2057   -2.1627 N   0  0  0  0  0  0
   -2.8834    2.5352   -2.8052 O   0  0  0  0  0  0
   -3.0211    4.8205   -0.3880 H   0  0  0  0  0  0
   -4.2865    4.3721   -1.5247 H   0  0  0  0  0  0
   -2.7873    5.0754   -2.1109 H   0  0  0  0  0  0
   -0.6239    3.6132   -2.2295 H   0  0  0  0  0  0
   -0.7757    3.6681   -0.4909 H   0  0  0  0  0  0
   -6.3765    1.1331    0.3157 H   0  0  0  0  0  0
   -5.1933    1.8346    1.4213 H   0  0  0  0  0  0
   -4.9511    0.2028    0.7715 H   0  0  0  0  0  0
   -1.8659   -0.7715   -1.4988 H   0  0  0  0  0  0
    0.8597   -2.2564   -1.3711 H   0  0  0  0  0  0
    2.5221   -2.4154   -1.8805 H   0  0  0  0  0  0
    1.2818    0.6915    2.7954 H   0  0  0  0  0  0
   -3.7317   -4.7100    2.5615 H   0  0  0  0  0  0
   -2.2274   -5.5662    2.8347 H   0  0  0  0  0  0
   -3.1717   -4.2244    4.9180 H   0  0  0  0  0  0
   -2.1418   -2.5148    6.3775 H   0  0  0  0  0  0
   -0.4054   -2.5820    6.1033 H   0  0  0  0  0  0
   -1.1548   -0.3481    6.3741 H   0  0  0  0  0  0
   -2.9324   -1.9780    2.1306 H   0  0  0  0  0  0
    1.1382   -4.4883   -0.1535 H   0  0  0  0  0  0
    0.9419    0.1383   -2.4761 H   0  0  0  0  0  0
   -2.4882    3.1279   -3.4272 H   0  0  0  0  0  0
    2.3773   -4.7276    0.9111 H   0  0  0  0  0  0
   -5.0284    2.6682   -0.8307 H   0  0  0  0  0  0
   -2.2118   -0.4832    5.1171 H   0  0  0  0  0  0
    2.1015    1.1976   -2.0277 H   0  0  0  0  0  0
   -3.7109   -2.8675    0.9788 H   0  0  0  0  0  0
    2.6912   -4.5626   -0.6969 H   0  0  0  0  0  0
   -4.7146    1.1737   -1.4194 H   0  0  0  0  0  0
   -0.5851   -0.5526    4.8408 H   0  0  0  0  0  0
   -2.3372   -2.0398    0.5919 H   0  0  0  0  0  0
  1  2  1  0  0  0
  1 42  1  0  0  0
  1 43  1  0  0  0
  1 44  1  0  0  0
  2  9  1  0  0  0
  2  3  1  0  0  0
  2 41  1  0  0  0
  3  4  1  0  0  0
  3 45  1  0  0  0
  3 46  1  0  0  0
  4  5  1  0  0  0
  5  6  1  0  0  0
  5  7  1  0  0  0
  5 14  1  0  0  0
  7  8  1  0  0  0
  7  9  1  0  0  0
  7 13  1  0  0  0
  9 10  1  0  0  0
  9 11  1  0  0  0
 11 12  1  0  0  0
 11 65  1  0  0  0
 11 70  1  0  0  0
 12 47  1  0  0  0
 12 48  1  0  0  0
 12 49  1  0  0  0
 13 50  1  0  0  0
 14 15  1  0  0  0
 15 16  1  0  0  0
 15 24  1  0  0  0
 15 17  1  0  0  0
 17 18  1  0  0  0
 17 19  1  0  0  0
 17 40  1  0  0  0
 19 20  1  0  0  0
 19 51  1  0  0  0
 19 52  1  0  0  0
 20 21  1  0  0  0
 20 22  1  0  0  0
 20 39  1  0  0  0
 22 23  1  0  0  0
 22 24  1  0  0  0
 22 27  1  0  0  0
 24 25  1  0  0  0
 24 26  1  0  0  0
 26 53  1  0  0  0
 27 28  1  0  0  0
 28 29  1  0  0  0
 28 35  1  0  0  0
 28 30  1  0  0  0
 30 31  1  0  0  0
 30 32  1  0  0  0
 30 38  1  0  0  0
 32 33  1  0  0  0
 32 54  1  0  0  0
 32 55  1  0  0  0
 33 34  2  0  0  0
 33 56  1  0  0  0
 34 35  1  0  0  0
 34 36  1  0  0  0
 36 37  1  0  0  0
 36 57  1  0  0  0
 36 58  1  0  0  0
 37 59  1  0  0  0
 37 66  1  0  0  0
 37 71  1  0  0  0
 38 60  1  0  0  0
 38 68  1  0  0  0
 38 72  1  0  0  0
 39 61  1  0  0  0
 39 64  1  0  0  0
 39 69  1  0  0  0
 40 62  1  0  0  0
 40 67  1  0  0  0
 41 63  1  0  0  0
M  CHG  4  11   1  37   1  38   1  39   1
M  END
> <s_m_entry_id>
102

> <s_m_entry_name>
biosynth_p1.0.sdf.95

> <s_m_Source_Path>
/Users/Sebastito/Downloads

> <s_m_Source_File>
biosynth_p1.0.sdf.gz

> <i_m_Source_File_Index>
95

> <chiral flag>
1

> <version>
0

> <i_m_ct_enhanced_stereo_status>
0

> <s_m_source_file>
ligprep_vs.maegz

> <i_m_source_file_index>
95

> <i_lp_mmshare_version>
37011

> <r_epik_Ionization_Penalty>
1.95127

> <r_epik_Ionization_Penalty_Charging>
0.631188

> <r_epik_Ionization_Penalty_Neutral>
1.32008

> <r_epik_State_Penalty>
2.00464

> <r_epik_Charging_Adjusted_Penalty>
2.63583

> <i_epik_Tot_Q>
4

> <i_epik_Tot_abs_Q>
4

> <s_epik_Chemistry_Notes>
This compound contains an acetal/aminal-like group ( X-CH(R)-Y where X, Y are N, S, or O) that may be acid/base labile, releasing an aldehyde.

> <i_f3d_flags>
0

> <s_lp_Force_Field>
OPLS_2005

> <r_lp_Energy>
79.9129

> <b_lp_Chiralities_Consistent>
1

> <s_lp_Variant>
ZINC60184552-6

$$$$
ZINC60184552
                    3D
 Structure written by MMmdl.
 71 73  0  0  1  0            999 V2000
   -3.0849    4.4432    0.6995 C   0  0  0  0  0  0
   -2.5207    3.0573    1.0674 C   0  0  1  0  0  0
   -2.5316    2.1467   -0.1821 C   0  0  0  0  0  0
   -1.8288    0.9274    0.0418 O   0  0  0  0  0  0
   -0.4881    1.0805    0.3870 C   0  0  1  0  0  0
   -0.0251    1.6882   -0.3934 H   0  0  0  0  0  0
   -0.4016    1.7763    1.7598 C   0  0  1  0  0  0
    0.6535    1.9001    2.0018 H   0  0  0  0  0  0
   -1.0808    3.1608    1.6376 C   0  0  2  0  0  0
   -0.5010    3.7389    0.9156 H   0  0  0  0  0  0
   -1.0464    3.9188    2.9121 N   0  3  0  0  0  0
    0.2849    4.4096    3.3205 C   0  0  0  0  0  0
   -0.9872    0.9907    2.7818 O   0  0  0  0  0  0
    0.1640   -0.1471    0.4503 O   0  0  0  0  0  0
    1.5626   -0.1408    0.1742 C   0  0  2  0  0  0
    1.9997    0.8532    0.2903 H   0  0  0  0  0  0
    1.8016   -0.6668   -1.2616 C   0  0  1  0  0  0
    2.8825   -0.6941   -1.4055 H   0  0  0  0  0  0
    1.3051   -2.1197   -1.4221 C   0  0  0  0  0  0
    1.9544   -3.0629   -0.3827 C   0  0  1  0  0  0
    3.0294   -3.0823   -0.5687 H   0  0  0  0  0  0
    1.7199   -2.5687    1.0638 C   0  0  1  0  0  0
    2.2641   -3.2173    1.7528 H   0  0  0  0  0  0
    2.2474   -1.1118    1.1600 C   0  0  2  0  0  0
    3.2987   -1.1517    0.8705 H   0  0  0  0  0  0
    2.3256   -0.5964    2.4730 O   0  0  0  0  0  0
    0.3105   -2.6588    1.2688 O   0  0  0  0  0  0
   -0.1192   -2.9948    2.5493 C   0  0  2  0  0  0
    0.3874   -3.9151    2.8464 H   0  0  0  0  0  0
   -1.6430   -3.2459    2.4829 C   0  0  1  0  0  0
   -1.8086   -4.0671    1.7848 H   0  0  0  0  0  0
   -2.1185   -3.6917    3.8759 C   0  0  0  0  0  0
   -1.5364   -2.7989    4.9469 C   0  0  0  0  0  0
   -0.4678   -2.0159    4.7166 C   0  0  0  0  0  0
    0.1862   -2.0168    3.5073 O   0  0  0  0  0  0
    0.1461   -1.0633    5.7196 C   0  0  0  0  0  0
    1.5085   -1.4996    6.0657 N   0  3  0  0  0  0
   -2.3780   -2.0645    1.9954 N   0  0  0  0  0  0
    1.4840   -4.4496   -0.5571 N   0  3  0  0  0  0
    1.2650    0.2330   -2.2938 N   0  0  0  0  0  0
   -3.4241    2.4995    2.0062 O   0  0  0  0  0  0
   -2.4505    4.9482   -0.0298 H   0  0  0  0  0  0
   -3.1650    5.0941    1.5708 H   0  0  0  0  0  0
   -4.0812    4.3620    0.2626 H   0  0  0  0  0  0
   -3.5537    1.9161   -0.4855 H   0  0  0  0  0  0
   -2.0708    2.6594   -1.0282 H   0  0  0  0  0  0
    0.1930    5.0064    4.2277 H   0  0  0  0  0  0
    0.7234    5.0380    2.5447 H   0  0  0  0  0  0
    0.9663    3.5858    3.5312 H   0  0  0  0  0  0
   -1.8763    0.7920    2.5260 H   0  0  0  0  0  0
    0.2181   -2.1519   -1.3324 H   0  0  0  0  0  0
    1.5368   -2.4732   -2.4276 H   0  0  0  0  0  0
    2.7687    0.2379    2.4387 H   0  0  0  0  0  0
   -3.2075   -3.6745    3.9343 H   0  0  0  0  0  0
   -1.8064   -4.7166    4.0789 H   0  0  0  0  0  0
   -2.0202   -2.8056    5.9131 H   0  0  0  0  0  0
    0.1840   -0.0611    5.2925 H   0  0  0  0  0  0
   -0.4621   -1.0152    6.6235 H   0  0  0  0  0  0
    1.9137   -0.8539    6.7283 H   0  0  0  0  0  0
   -3.3818   -2.2411    2.0034 H   0  0  0  0  0  0
    0.4886   -4.4876   -0.3891 H   0  0  0  0  0  0
    1.4674   -0.1312   -3.2240 H   0  0  0  0  0  0
   -3.5606    3.1182    2.7070 H   0  0  0  0  0  0
    1.9594   -5.0557    0.0962 H   0  0  0  0  0  0
   -1.6460    4.7245    2.8049 H   0  0  0  0  0  0
    2.0737   -1.5244    5.2288 H   0  0  0  0  0  0
    0.2501    0.2910   -2.2189 H   0  0  0  0  0  0
   -2.2125   -1.2675    2.6079 H   0  0  0  0  0  0
    1.6765   -4.7558   -1.5002 H   0  0  0  0  0  0
   -1.4228    3.3334    3.6443 H   0  0  0  0  0  0
    1.4725   -2.4225    6.4747 H   0  0  0  0  0  0
  1  2  1  0  0  0
  1 42  1  0  0  0
  1 43  1  0  0  0
  1 44  1  0  0  0
  2  9  1  0  0  0
  2  3  1  0  0  0
  2 41  1  0  0  0
  3  4  1  0  0  0
  3 45  1  0  0  0
  3 46  1  0  0  0
  4  5  1  0  0  0
  5  6  1  0  0  0
  5  7  1  0  0  0
  5 14  1  0  0  0
  7  8  1  0  0  0
  7  9  1  0  0  0
  7 13  1  0  0  0
  9 10  1  0  0  0
  9 11  1  0  0  0
 11 12  1  0  0  0
 11 65  1  0  0  0
 11 70  1  0  0  0
 12 47  1  0  0  0
 12 48  1  0  0  0
 12 49  1  0  0  0
 13 50  1  0  0  0
 14 15  1  0  0  0
 15 16  1  0  0  0
 15 24  1  0  0  0
 15 17  1  0  0  0
 17 18  1  0  0  0
 17 19  1  0  0  0
 17 40  1  0  0  0
 19 20  1  0  0  0
 19 51  1  0  0  0
 19 52  1  0  0  0
 20 21  1  0  0  0
 20 22  1  0  0  0
 20 39  1  0  0  0
 22 23  1  0  0  0
 22 24  1  0  0  0
 22 27  1  0  0  0
 24 25  1  0  0  0
 24 26  1  0  0  0
 26 53  1  0  0  0
 27 28  1  0  0  0
 28 29  1  0  0  0
 28 35  1  0  0  0
 28 30  1  0  0  0
 30 31  1  0  0  0
 30 32  1  0  0  0
 30 38  1  0  0  0
 32 33  1  0  0  0
 32 54  1  0  0  0
 32 55  1  0  0  0
 33 34  2  0  0  0
 33 56  1  0  0  0
 34 35  1  0  0  0
 34 36  1  0  0  0
 36 37  1  0  0  0
 36 57  1  0  0  0
 36 58  1  0  0  0
 37 59  1  0  0  0
 37 66  1  0  0  0
 37 71  1  0  0  0
 38 60  1  0  0  0
 38 68  1  0  0  0
 39 61  1  0  0  0
 39 64  1  0  0  0
 39 69  1  0  0  0
 40 62  1  0  0  0
 40 67  1  0  0  0
 41 63  1  0  0  0
M  CHG  3  11   1  37   1  39   1
M  END
> <s_m_entry_id>
102

> <s_m_entry_name>
biosynth_p1.0.sdf.95

> <s_m_Source_Path>
/Users/Sebastito/Downloads

> <s_m_Source_File>
biosynth_p1.0.sdf.gz

> <i_m_Source_File_Index>
95

> <chiral flag>
1

> <version>
0

> <i_m_ct_enhanced_stereo_status>
0

> <s_m_source_file>
ligprep_vs.maegz

> <i_m_source_file_index>
95

> <i_lp_mmshare_version>
37011

> <r_epik_Ionization_Penalty>
1.98152

> <r_epik_Ionization_Penalty_Charging>
0.157133

> <r_epik_Ionization_Penalty_Neutral>
1.82439

> <r_epik_State_Penalty>
2.16151

> <r_epik_Charging_Adjusted_Penalty>
2.31864

> <i_epik_Tot_Q>
3

> <i_epik_Tot_abs_Q>
3

> <s_epik_Chemistry_Notes>
This compound contains an acetal/aminal-like group ( X-CH(R)-Y where X, Y are N, S, or O) that may be acid/base labile, releasing an aldehyde.

> <i_f3d_flags>
0

> <s_lp_Force_Field>
OPLS_2005

> <r_lp_Energy>
71.0212

> <b_lp_Chiralities_Consistent>
1

> <s_lp_Variant>
ZINC60184552-7

$$$$
ZINC60184552
                    3D
 Structure written by MMmdl.
 71 73  0  0  1  0            999 V2000
   -3.1216    4.5533    0.6556 C   0  0  0  0  0  0
   -2.5540    3.1627    1.0003 C   0  0  1  0  0  0
   -2.5974    2.2641   -0.2564 C   0  0  0  0  0  0
   -1.8998    1.0380   -0.0570 O   0  0  0  0  0  0
   -0.5504    1.1732    0.2595 C   0  0  1  0  0  0
   -0.0976    1.7730   -0.5329 H   0  0  0  0  0  0
   -0.4230    1.8681    1.6324 C   0  0  1  0  0  0
    0.6384    1.9936    1.8429 H   0  0  0  0  0  0
   -1.1012    3.2560    1.5386 C   0  0  2  0  0  0
   -0.5365    3.8390    0.8086 H   0  0  0  0  0  0
   -1.0365    4.0035    2.8190 N   0  3  0  0  0  0
    0.3076    4.4687    3.2155 C   0  0  0  0  0  0
   -0.9750    1.0817    2.6717 O   0  0  0  0  0  0
    0.0836   -0.0663    0.2964 O   0  0  0  0  0  0
    1.4913   -0.0784    0.0669 C   0  0  2  0  0  0
    1.9148    0.9274    0.0963 H   0  0  0  0  0  0
    1.7609   -0.7186   -1.3178 C   0  0  1  0  0  0
    2.8332   -0.6617   -1.5100 H   0  0  0  0  0  0
    1.3537   -2.2079   -1.3610 C   0  0  0  0  0  0
    2.0301   -3.0179   -0.2338 C   0  0  1  0  0  0
    3.1068   -2.9223   -0.3790 H   0  0  0  0  0  0
    1.7087   -2.4201    1.1519 C   0  0  1  0  0  0
    2.2418   -2.9847    1.9198 H   0  0  0  0  0  0
    2.1716   -0.9426    1.1544 C   0  0  2  0  0  0
    3.2364   -0.9558    0.9172 H   0  0  0  0  0  0
    2.1489   -0.3412    2.4331 O   0  0  0  0  0  0
    0.2940   -2.5052    1.3034 O   0  0  0  0  0  0
   -0.1547   -2.9648    2.5352 C   0  0  2  0  0  0
    0.3030   -3.9402    2.7142 H   0  0  0  0  0  0
   -1.6901   -3.1234    2.4567 C   0  0  1  0  0  0
   -1.9030   -3.8437    1.6660 H   0  0  0  0  0  0
   -2.1786   -3.7085    3.7928 C   0  0  0  0  0  0
   -1.5311   -2.9942    4.9574 C   0  0  0  0  0  0
   -0.4249   -2.2439    4.8078 C   0  0  0  0  0  0
    0.2129   -2.1243    3.5962 O   0  0  0  0  0  0
    0.2620   -1.4739    5.9145 C   0  0  0  0  0  0
    1.6386   -1.9634    6.0939 N   0  3  0  0  0  0
   -2.3658   -1.8552    2.1268 N   0  0  0  0  0  0
    1.7162   -4.4528   -0.3026 N   0  0  0  0  0  0
    1.1126    0.0355   -2.4063 N   0  3  0  0  0  0
   -3.4367    2.5980    1.9538 O   0  0  0  0  0  0
   -2.5046    5.0599   -0.0874 H   0  0  0  0  0  0
   -3.1767    5.1995    1.5320 H   0  0  0  0  0  0
   -4.1292    4.4786    0.2441 H   0  0  0  0  0  0
   -3.6272    2.0437   -0.5408 H   0  0  0  0  0  0
   -2.1503    2.7806   -1.1074 H   0  0  0  0  0  0
    0.2348    5.0707    4.1213 H   0  0  0  0  0  0
    0.7543    5.0847    2.4347 H   0  0  0  0  0  0
    0.9719    3.6309    3.4255 H   0  0  0  0  0  0
   -1.8657    0.8647    2.4373 H   0  0  0  0  0  0
    0.2688   -2.3011   -1.2887 H   0  0  0  0  0  0
    1.6300   -2.6321   -2.3274 H   0  0  0  0  0  0
    2.5979    0.4886    2.3830 H   0  0  0  0  0  0
   -3.2636   -3.6320    3.8719 H   0  0  0  0  0  0
   -1.9292   -4.7679    3.8609 H   0  0  0  0  0  0
   -1.9980   -3.1041    5.9253 H   0  0  0  0  0  0
    0.2832   -0.4141    5.6588 H   0  0  0  0  0  0
   -0.2867   -1.5792    6.8509 H   0  0  0  0  0  0
    2.0917   -1.4415    6.8302 H   0  0  0  0  0  0
   -3.3758   -1.9889    2.1002 H   0  0  0  0  0  0
    2.1853   -4.9576    0.4483 H   0  0  0  0  0  0
    0.1106    0.0130   -2.2782 H   0  0  0  0  0  0
   -3.5694    3.2165    2.6558 H   0  0  0  0  0  0
    0.7161   -4.6030   -0.1761 H   0  0  0  0  0  0
   -1.6245    4.8198    2.7276 H   0  0  0  0  0  0
    2.1506   -1.8447    5.2311 H   0  0  0  0  0  0
    1.3450   -0.3897   -3.2929 H   0  0  0  0  0  0
   -2.1793   -1.1603    2.8479 H   0  0  0  0  0  0
    1.4348    0.9925   -2.3996 H   0  0  0  0  0  0
   -1.4129    3.4186    3.5517 H   0  0  0  0  0  0
    1.6175   -2.9430    6.3386 H   0  0  0  0  0  0
  1  2  1  0  0  0
  1 42  1  0  0  0
  1 43  1  0  0  0
  1 44  1  0  0  0
  2  9  1  0  0  0
  2  3  1  0  0  0
  2 41  1  0  0  0
  3  4  1  0  0  0
  3 45  1  0  0  0
  3 46  1  0  0  0
  4  5  1  0  0  0
  5  6  1  0  0  0
  5  7  1  0  0  0
  5 14  1  0  0  0
  7  8  1  0  0  0
  7  9  1  0  0  0
  7 13  1  0  0  0
  9 10  1  0  0  0
  9 11  1  0  0  0
 11 12  1  0  0  0
 11 65  1  0  0  0
 11 70  1  0  0  0
 12 47  1  0  0  0
 12 48  1  0  0  0
 12 49  1  0  0  0
 13 50  1  0  0  0
 14 15  1  0  0  0
 15 16  1  0  0  0
 15 24  1  0  0  0
 15 17  1  0  0  0
 17 18  1  0  0  0
 17 19  1  0  0  0
 17 40  1  0  0  0
 19 20  1  0  0  0
 19 51  1  0  0  0
 19 52  1  0  0  0
 20 21  1  0  0  0
 20 22  1  0  0  0
 20 39  1  0  0  0
 22 23  1  0  0  0
 22 24  1  0  0  0
 22 27  1  0  0  0
 24 25  1  0  0  0
 24 26  1  0  0  0
 26 53  1  0  0  0
 27 28  1  0  0  0
 28 29  1  0  0  0
 28 35  1  0  0  0
 28 30  1  0  0  0
 30 31  1  0  0  0
 30 32  1  0  0  0
 30 38  1  0  0  0
 32 33  1  0  0  0
 32 54  1  0  0  0
 32 55  1  0  0  0
 33 34  2  0  0  0
 33 56  1  0  0  0
 34 35  1  0  0  0
 34 36  1  0  0  0
 36 37  1  0  0  0
 36 57  1  0  0  0
 36 58  1  0  0  0
 37 59  1  0  0  0
 37 66  1  0  0  0
 37 71  1  0  0  0
 38 60  1  0  0  0
 38 68  1  0  0  0
 39 61  1  0  0  0
 39 64  1  0  0  0
 40 62  1  0  0  0
 40 67  1  0  0  0
 40 69  1  0  0  0
 41 63  1  0  0  0
M  CHG  3  11   1  37   1  40   1
M  END
> <s_m_entry_id>
102

> <s_m_entry_name>
biosynth_p1.0.sdf.95

> <s_m_Source_Path>
/Users/Sebastito/Downloads

> <s_m_Source_File>
biosynth_p1.0.sdf.gz

> <i_m_Source_File_Index>
95

> <chiral flag>
1

> <version>
0

> <i_m_ct_enhanced_stereo_status>
0

> <s_m_source_file>
ligprep_vs.maegz

> <i_m_source_file_index>
95

> <i_lp_mmshare_version>
37011

> <r_epik_Ionization_Penalty>
2.05908

> <r_epik_Ionization_Penalty_Charging>
0.155437

> <r_epik_Ionization_Penalty_Neutral>
1.90364

> <r_epik_State_Penalty>
2.19182

> <r_epik_Charging_Adjusted_Penalty>
2.34726

> <i_epik_Tot_Q>
3

> <i_epik_Tot_abs_Q>
3

> <s_epik_Chemistry_Notes>
This compound contains an acetal/aminal-like group ( X-CH(R)-Y where X, Y are N, S, or O) that may be acid/base labile, releasing an aldehyde.

> <i_f3d_flags>
0

> <s_lp_Force_Field>
OPLS_2005

> <r_lp_Energy>
70.1427

> <b_lp_Chiralities_Consistent>
1

> <s_lp_Variant>
ZINC60184552-8

$$$$
ZINC60184552
                    3D
 Structure written by MMmdl.
 72 74  0  0  1  0            999 V2000
   -2.8085    4.6171   -1.0788 C   0  0  0  0  0  0
   -2.3658    3.1448   -1.1797 C   0  0  1  0  0  0
   -0.8502    3.0811   -1.4773 C   0  0  0  0  0  0
   -0.3416    1.7533   -1.3784 O   0  0  0  0  0  0
   -0.5075    1.1483   -0.1324 C   0  0  1  0  0  0
   -0.0687    1.7891    0.6364 H   0  0  0  0  0  0
   -2.0095    0.9639    0.1412 C   0  0  1  0  0  0
   -2.1002    0.5214    1.1322 H   0  0  0  0  0  0
   -2.6741    2.3611    0.1230 C   0  0  2  0  0  0
   -2.2014    2.9307    0.9250 H   0  0  0  0  0  0
   -4.1138    2.3126    0.4171 N   0  0  0  0  0  0
   -4.4663    1.8342    1.7511 C   0  0  0  0  0  0
   -2.6020    0.0804   -0.7932 O   0  0  0  0  0  0
    0.1095   -0.0985   -0.0563 O   0  0  0  0  0  0
    1.5344   -0.0619   -0.0729 C   0  0  2  0  0  0
    1.9154    0.9619   -0.0861 H   0  0  0  0  0  0
    2.0467   -0.8040   -1.3311 C   0  0  1  0  0  0
    3.1336   -0.7123   -1.3532 H   0  0  0  0  0  0
    1.7022   -2.3080   -1.2968 C   0  0  0  0  0  0
    2.2384   -2.9793   -0.0140 C   0  0  1  0  0  0
    3.3258   -2.8897   -0.0157 H   0  0  0  0  0  0
    1.7000   -2.2844    1.2569 C   0  0  1  0  0  0
    2.1784   -2.7302    2.1319 H   0  0  0  0  0  0
    2.0591   -0.7801    1.1902 C   0  0  2  0  0  0
    3.1480   -0.7269    1.1463 H   0  0  0  0  0  0
    1.7453   -0.0833    2.3793 O   0  0  0  0  0  0
    0.2832   -2.4652    1.2734 O   0  0  0  0  0  0
   -0.2241   -3.0168    2.4475 C   0  0  2  0  0  0
    0.3243   -3.9373    2.6600 H   0  0  0  0  0  0
   -1.7174   -3.3523    2.2238 C   0  0  1  0  0  0
   -1.7946   -4.0484    1.3879 H   0  0  0  0  0  0
   -2.2546   -4.0161    3.5029 C   0  0  0  0  0  0
   -1.8107   -3.2514    4.7294 C   0  0  0  0  0  0
   -0.7904   -2.3752    4.6939 C   0  0  0  0  0  0
   -0.0598   -2.1585    3.5480 O   0  0  0  0  0  0
   -0.2814   -1.5882    5.8844 C   0  0  0  0  0  0
   -0.5856   -0.1564    5.7302 N   0  3  0  0  0  0
   -2.4928   -2.1452    1.8784 N   0  3  0  0  0  0
    1.9548   -4.4269   -0.0038 N   0  3  0  0  0  0
    1.5664   -0.1707   -2.5736 N   0  3  0  0  0  0
   -3.0378    2.5976   -2.2993 O   0  0  0  0  0  0
   -2.3292    5.1179   -0.2371 H   0  0  0  0  0  0
   -3.8869    4.7088   -0.9455 H   0  0  0  0  0  0
   -2.5459    5.1721   -1.9804 H   0  0  0  0  0  0
   -0.6334    3.4711   -2.4727 H   0  0  0  0  0  0
   -0.3014    3.7118   -0.7759 H   0  0  0  0  0  0
   -5.5439    1.8963    1.9037 H   0  0  0  0  0  0
   -3.9875    2.4361    2.5239 H   0  0  0  0  0  0
   -4.1776    0.7940    1.8963 H   0  0  0  0  0  0
   -3.5421    0.1522   -0.7129 H   0  0  0  0  0  0
    0.6218   -2.4441   -1.3676 H   0  0  0  0  0  0
    2.1292   -2.7999   -2.1720 H   0  0  0  0  0  0
    2.1473    0.7719    2.3418 H   0  0  0  0  0  0
   -3.3437   -4.0733    3.4794 H   0  0  0  0  0  0
   -1.8850   -5.0386    3.5883 H   0  0  0  0  0  0
   -2.3396   -3.4454    5.6514 H   0  0  0  0  0  0
   -0.7338   -1.9569    6.8058 H   0  0  0  0  0  0
    0.7972   -1.7211    5.9735 H   0  0  0  0  0  0
   -0.2344    0.3473    6.5326 H   0  0  0  0  0  0
   -2.4347   -1.4782    2.6340 H   0  0  0  0  0  0
    0.9563   -4.5790   -0.0112 H   0  0  0  0  0  0
    0.5575   -0.2153   -2.6100 H   0  0  0  0  0  0
   -2.7878    1.6902   -2.3856 H   0  0  0  0  0  0
    2.3544   -4.8471    0.8236 H   0  0  0  0  0  0
   -4.5128    3.2353    0.2712 H   0  0  0  0  0  0
   -1.5850   -0.0253    5.6660 H   0  0  0  0  0  0
    1.9527   -0.6500   -3.3747 H   0  0  0  0  0  0
   -3.4593   -2.3990    1.7279 H   0  0  0  0  0  0
    2.3633   -4.8569   -0.8219 H   0  0  0  0  0  0
    1.8543    0.7975   -2.5943 H   0  0  0  0  0  0
   -0.1415    0.1957    4.8943 H   0  0  0  0  0  0
   -2.1200   -1.7336    1.0344 H   0  0  0  0  0  0
  1  2  1  0  0  0
  1 42  1  0  0  0
  1 43  1  0  0  0
  1 44  1  0  0  0
  2  9  1  0  0  0
  2  3  1  0  0  0
  2 41  1  0  0  0
  3  4  1  0  0  0
  3 45  1  0  0  0
  3 46  1  0  0  0
  4  5  1  0  0  0
  5  6  1  0  0  0
  5  7  1  0  0  0
  5 14  1  0  0  0
  7  8  1  0  0  0
  7  9  1  0  0  0
  7 13  1  0  0  0
  9 10  1  0  0  0
  9 11  1  0  0  0
 11 12  1  0  0  0
 11 65  1  0  0  0
 12 47  1  0  0  0
 12 48  1  0  0  0
 12 49  1  0  0  0
 13 50  1  0  0  0
 14 15  1  0  0  0
 15 16  1  0  0  0
 15 24  1  0  0  0
 15 17  1  0  0  0
 17 18  1  0  0  0
 17 19  1  0  0  0
 17 40  1  0  0  0
 19 20  1  0  0  0
 19 51  1  0  0  0
 19 52  1  0  0  0
 20 21  1  0  0  0
 20 22  1  0  0  0
 20 39  1  0  0  0
 22 23  1  0  0  0
 22 24  1  0  0  0
 22 27  1  0  0  0
 24 25  1  0  0  0
 24 26  1  0  0  0
 26 53  1  0  0  0
 27 28  1  0  0  0
 28 29  1  0  0  0
 28 35  1  0  0  0
 28 30  1  0  0  0
 30 31  1  0  0  0
 30 32  1  0  0  0
 30 38  1  0  0  0
 32 33  1  0  0  0
 32 54  1  0  0  0
 32 55  1  0  0  0
 33 34  2  0  0  0
 33 56  1  0  0  0
 34 35  1  0  0  0
 34 36  1  0  0  0
 36 37  1  0  0  0
 36 57  1  0  0  0
 36 58  1  0  0  0
 37 59  1  0  0  0
 37 66  1  0  0  0
 37 71  1  0  0  0
 38 60  1  0  0  0
 38 68  1  0  0  0
 38 72  1  0  0  0
 39 61  1  0  0  0
 39 64  1  0  0  0
 39 69  1  0  0  0
 40 62  1  0  0  0
 40 67  1  0  0  0
 40 70  1  0  0  0
 41 63  1  0  0  0
M  CHG  4  37   1  38   1  39   1  40   1
M  END
> <s_m_entry_id>
102

> <s_m_entry_name>
biosynth_p1.0.sdf.95

> <s_m_Source_Path>
/Users/Sebastito/Downloads

> <s_m_Source_File>
biosynth_p1.0.sdf.gz

> <i_m_Source_File_Index>
95

> <chiral flag>
1

> <version>
0

> <i_m_ct_enhanced_stereo_status>
0

> <s_m_source_file>
ligprep_vs.maegz

> <i_m_source_file_index>
95

> <i_lp_mmshare_version>
37011

> <r_epik_Ionization_Penalty>
2.31594

> <r_epik_Ionization_Penalty_Charging>
0.747414

> <r_epik_Ionization_Penalty_Neutral>
1.56853

> <r_epik_State_Penalty>
2.30076

> <r_epik_Charging_Adjusted_Penalty>
3.04818

> <i_epik_Tot_Q>
4

> <i_epik_Tot_abs_Q>
4

> <s_epik_Chemistry_Notes>
This compound contains an acetal/aminal-like group ( X-CH(R)-Y where X, Y are N, S, or O) that may be acid/base labile, releasing an aldehyde.

> <i_f3d_flags>
0

> <s_lp_Force_Field>
OPLS_2005

> <r_lp_Energy>
90.7117

> <b_lp_Chiralities_Consistent>
1

> <s_lp_Variant>
ZINC60184552-9

$$$$
ZINC60184552
                    3D
 Structure written by MMmdl.
 71 73  0  0  1  0            999 V2000
   -2.2648    4.5557    1.5561 C   0  0  0  0  0  0
   -2.0579    3.2155    0.8247 C   0  0  1  0  0  0
   -0.6240    3.1569    0.2476 C   0  0  0  0  0  0
   -0.3011    1.8637   -0.2601 O   0  0  0  0  0  0
   -0.3789    0.8322    0.6772 C   0  0  1  0  0  0
    0.2531    1.0785    1.5333 H   0  0  0  0  0  0
   -1.8424    0.6742    1.1208 C   0  0  1  0  0  0
   -1.8676   -0.1282    1.8547 H   0  0  0  0  0  0
   -2.2891    2.0064    1.7682 C   0  0  2  0  0  0
   -1.6283    2.1674    2.6207 H   0  0  0  0  0  0
   -3.6628    1.9593    2.2894 N   0  0  0  0  0  0
   -3.8994    0.9763    3.3438 C   0  0  0  0  0  0
   -2.6736    0.3020    0.0371 O   0  0  0  0  0  0
    0.0520   -0.3875    0.1677 O   0  0  0  0  0  0
    1.4344   -0.4442   -0.1672 C   0  0  2  0  0  0
    1.8855    0.5495   -0.2103 H   0  0  0  0  0  0
    1.5356   -1.0932   -1.5653 C   0  0  1  0  0  0
    2.5813   -1.0709   -1.8749 H   0  0  0  0  0  0
    1.0741   -2.5676   -1.5540 C   0  0  0  0  0  0
    1.8238   -3.4003   -0.4883 C   0  0  1  0  0  0
    2.8822   -3.4165   -0.7519 H   0  0  0  0  0  0
    1.6801   -2.7812    0.9214 C   0  0  1  0  0  0
    2.2820   -3.3640    1.6208 H   0  0  0  0  0  0
    2.1943   -1.3200    0.8526 C   0  0  2  0  0  0
    3.2203   -1.3836    0.4871 H   0  0  0  0  0  0
    2.3757   -0.6972    2.1079 O   0  0  0  0  0  0
    0.2907   -2.8872    1.2310 O   0  0  0  0  0  0
   -0.0661   -2.8692    2.5776 C   0  0  2  0  0  0
    0.6567   -3.4608    3.1432 H   0  0  0  0  0  0
   -1.4601   -3.5276    2.7022 C   0  0  1  0  0  0
   -1.3639   -4.5557    2.3516 H   0  0  0  0  0  0
   -1.8511   -3.5633    4.1891 C   0  0  0  0  0  0
   -1.5556   -2.2390    4.8533 C   0  0  0  0  0  0
   -0.7238   -1.3360    4.3057 C   0  0  0  0  0  0
   -0.0657   -1.5766    3.1227 O   0  0  0  0  0  0
   -0.4110    0.0230    4.8930 C   0  0  0  0  0  0
    0.9654    0.0464    5.4130 N   0  3  0  0  0  0
   -2.4751   -2.8524    1.8742 N   0  0  0  0  0  0
    1.3784   -4.8070   -0.5010 N   0  3  0  0  0  0
    0.7914   -0.3066   -2.5674 N   0  3  0  0  0  0
   -2.9524    3.2115   -0.2731 O   0  0  0  0  0  0
   -1.6056    4.6399    2.4205 H   0  0  0  0  0  0
   -3.2890    4.6692    1.9131 H   0  0  0  0  0  0
   -2.0545    5.4019    0.9007 H   0  0  0  0  0  0
   -0.4945    3.8929   -0.5469 H   0  0  0  0  0  0
    0.1029    3.4116    1.0207 H   0  0  0  0  0  0
   -4.9093    1.0809    3.7402 H   0  0  0  0  0  0
   -3.2033    1.1114    4.1720 H   0  0  0  0  0  0
   -3.8010   -0.0437    2.9733 H   0  0  0  0  0  0
   -2.6919    1.0171   -0.5818 H   0  0  0  0  0  0
   -0.0012   -2.6158   -1.3726 H   0  0  0  0  0  0
    1.2346   -3.0063   -2.5398 H   0  0  0  0  0  0
    2.8610    0.1037    1.9773 H   0  0  0  0  0  0
   -2.9089   -3.8035    4.3032 H   0  0  0  0  0  0
   -1.2916   -4.3388    4.7134 H   0  0  0  0  0  0
   -2.0440   -2.0391    5.7960 H   0  0  0  0  0  0
   -0.5183    0.7868    4.1238 H   0  0  0  0  0  0
   -1.1096    0.2618    5.6954 H   0  0  0  0  0  0
    1.1676    0.9598    5.7942 H   0  0  0  0  0  0
   -3.3838   -3.2996    1.9908 H   0  0  0  0  0  0
    0.3981   -4.8514   -0.2597 H   0  0  0  0  0  0
   -0.1884   -0.2886   -2.3207 H   0  0  0  0  0  0
   -3.8329    3.3044    0.0585 H   0  0  0  0  0  0
    1.9123   -5.3402    0.1706 H   0  0  0  0  0  0
   -4.3048    1.7847    1.5222 H   0  0  0  0  0  0
    1.6116   -0.1572    4.6641 H   0  0  0  0  0  0
    0.8997   -0.7246   -3.4805 H   0  0  0  0  0  0
   -2.5871   -1.8826    2.1655 H   0  0  0  0  0  0
    1.5142   -5.1992   -1.4221 H   0  0  0  0  0  0
    1.1446    0.6398   -2.5883 H   0  0  0  0  0  0
    1.0631   -0.6489    6.1391 H   0  0  0  0  0  0
  1  2  1  0  0  0
  1 42  1  0  0  0
  1 43  1  0  0  0
  1 44  1  0  0  0
  2  9  1  0  0  0
  2  3  1  0  0  0
  2 41  1  0  0  0
  3  4  1  0  0  0
  3 45  1  0  0  0
  3 46  1  0  0  0
  4  5  1  0  0  0
  5  6  1  0  0  0
  5  7  1  0  0  0
  5 14  1  0  0  0
  7  8  1  0  0  0
  7  9  1  0  0  0
  7 13  1  0  0  0
  9 10  1  0  0  0
  9 11  1  0  0  0
 11 12  1  0  0  0
 11 65  1  0  0  0
 12 47  1  0  0  0
 12 48  1  0  0  0
 12 49  1  0  0  0
 13 50  1  0  0  0
 14 15  1  0  0  0
 15 16  1  0  0  0
 15 24  1  0  0  0
 15 17  1  0  0  0
 17 18  1  0  0  0
 17 19  1  0  0  0
 17 40  1  0  0  0
 19 20  1  0  0  0
 19 51  1  0  0  0
 19 52  1  0  0  0
 20 21  1  0  0  0
 20 22  1  0  0  0
 20 39  1  0  0  0
 22 23  1  0  0  0
 22 24  1  0  0  0
 22 27  1  0  0  0
 24 25  1  0  0  0
 24 26  1  0  0  0
 26 53  1  0  0  0
 27 28  1  0  0  0
 28 29  1  0  0  0
 28 35  1  0  0  0
 28 30  1  0  0  0
 30 31  1  0  0  0
 30 32  1  0  0  0
 30 38  1  0  0  0
 32 33  1  0  0  0
 32 54  1  0  0  0
 32 55  1  0  0  0
 33 34  2  0  0  0
 33 56  1  0  0  0
 34 35  1  0  0  0
 34 36  1  0  0  0
 36 37  1  0  0  0
 36 57  1  0  0  0
 36 58  1  0  0  0
 37 59  1  0  0  0
 37 66  1  0  0  0
 37 71  1  0  0  0
 38 60  1  0  0  0
 38 68  1  0  0  0
 39 61  1  0  0  0
 39 64  1  0  0  0
 39 69  1  0  0  0
 40 62  1  0  0  0
 40 67  1  0  0  0
 40 70  1  0  0  0
 41 63  1  0  0  0
M  CHG  3  37   1  39   1  40   1
M  END
> <s_m_entry_id>
102

> <s_m_entry_name>
biosynth_p1.0.sdf.95

> <s_m_Source_Path>
/Users/Sebastito/Downloads

> <s_m_Source_File>
biosynth_p1.0.sdf.gz

> <i_m_Source_File_Index>
95

> <chiral flag>
1

> <version>
0

> <i_m_ct_enhanced_stereo_status>
0

> <s_m_source_file>
ligprep_vs.maegz

> <i_m_source_file_index>
95

> <i_lp_mmshare_version>
37011

> <r_epik_Ionization_Penalty>
2.23666

> <r_epik_Ionization_Penalty_Charging>
0.231425

> <r_epik_Ionization_Penalty_Neutral>
2.00524

> <r_epik_State_Penalty>
2.4054

> <r_epik_Charging_Adjusted_Penalty>
2.63682

> <i_epik_Tot_Q>
3

> <i_epik_Tot_abs_Q>
3

> <s_epik_Chemistry_Notes>
This compound contains an acetal/aminal-like group ( X-CH(R)-Y where X, Y are N, S, or O) that may be acid/base labile, releasing an aldehyde.

> <i_f3d_flags>
0

> <s_lp_Force_Field>
OPLS_2005

> <r_lp_Energy>
76.4155

> <b_lp_Chiralities_Consistent>
1

> <s_lp_Variant>
ZINC60184552-10

$$$$
ZINC60184552
                    3D
 Structure written by MMmdl.
 71 73  0  0  1  0            999 V2000
   -2.8079    4.6472    0.7978 C   0  0  0  0  0  0
   -2.3918    3.1806    1.0198 C   0  0  1  0  0  0
   -2.2942    2.4580   -0.3452 C   0  0  0  0  0  0
   -1.7040    1.1642   -0.2294 O   0  0  0  0  0  0
   -0.4174    1.1582    0.3040 C   0  0  1  0  0  0
    0.1723    1.8406   -0.3124 H   0  0  0  0  0  0
   -0.4819    1.6375    1.7662 C   0  0  1  0  0  0
    0.5327    1.6233    2.1628 H   0  0  0  0  0  0
   -1.0392    3.0796    1.7766 C   0  0  2  0  0  0
   -0.3284    3.7041    1.2319 H   0  0  0  0  0  0
   -1.1278    3.6366    3.1494 N   0  3  0  0  0  0
    0.1654    3.9508    3.7894 C   0  0  0  0  0  0
   -1.2762    0.7754    2.5580 O   0  0  0  0  0  0
    0.1502   -0.1150    0.2665 O   0  0  0  0  0  0
    1.5468   -0.1841   -0.0242 C   0  0  2  0  0  0
    2.0235    0.7980   -0.0072 H   0  0  0  0  0  0
    1.7147   -0.8240   -1.4230 C   0  0  1  0  0  0
    2.7776   -0.8215   -1.6692 H   0  0  0  0  0  0
    1.2274   -2.2901   -1.4471 C   0  0  0  0  0  0
    1.9281   -3.1400   -0.3637 C   0  0  1  0  0  0
    2.9969   -3.0971   -0.5774 H   0  0  0  0  0  0
    1.7271   -2.5381    1.0443 C   0  0  1  0  0  0
    2.2986   -3.1280    1.7639 H   0  0  0  0  0  0
    2.2510   -1.0824    1.0166 C   0  0  2  0  0  0
    3.2963   -1.1449    0.7103 H   0  0  0  0  0  0
    2.3487   -0.4799    2.2887 O   0  0  0  0  0  0
    0.3241   -2.5903    1.3004 O   0  0  0  0  0  0
   -0.0446   -2.9345    2.5986 C   0  0  2  0  0  0
    0.5315   -3.8073    2.9133 H   0  0  0  0  0  0
   -1.5455   -3.2990    2.5755 C   0  0  1  0  0  0
   -1.6902   -4.1295    1.8837 H   0  0  0  0  0  0
   -1.9588   -3.7254    3.9926 C   0  0  0  0  0  0
   -1.4409   -2.7370    5.0108 C   0  0  0  0  0  0
   -0.4336   -1.8901    4.7352 C   0  0  0  0  0  0
    0.2059   -1.8990    3.5142 O   0  0  0  0  0  0
    0.1034   -0.8640    5.7176 C   0  0  0  0  0  0
    0.8022    0.2277    5.0670 N   0  0  0  0  0  0
   -2.3540   -2.1618    2.0967 N   0  3  0  0  0  0
    1.5411   -4.5579   -0.4163 N   0  0  0  0  0  0
    1.0548   -0.0246   -2.4720 N   0  3  0  0  0  0
   -3.4508    2.5746    1.7411 O   0  0  0  0  0  0
   -2.0509    5.1929    0.2333 H   0  0  0  0  0  0
   -2.9573    5.1746    1.7406 H   0  0  0  0  0  0
   -3.7419    4.7136    0.2377 H   0  0  0  0  0  0
   -3.2795    2.3584   -0.8031 H   0  0  0  0  0  0
   -1.6952    3.0478   -1.0412 H   0  0  0  0  0  0
   -0.0091    4.4092    4.7629 H   0  0  0  0  0  0
    0.7399    4.6522    3.1835 H   0  0  0  0  0  0
    0.7619    3.0525    3.9467 H   0  0  0  0  0  0
   -2.1601    0.7988    2.2218 H   0  0  0  0  0  0
    0.1456   -2.3279   -1.3101 H   0  0  0  0  0  0
    1.4240   -2.7213   -2.4298 H   0  0  0  0  0  0
    2.8732    0.3026    2.2138 H   0  0  0  0  0  0
   -3.0440   -3.8003    4.0706 H   0  0  0  0  0  0
   -1.5530   -4.7087    4.2329 H   0  0  0  0  0  0
   -1.9092   -2.7356    5.9845 H   0  0  0  0  0  0
   -0.7211   -0.4565    6.3034 H   0  0  0  0  0  0
    0.7833   -1.3592    6.4111 H   0  0  0  0  0  0
    1.1669    0.8527    5.7718 H   0  0  0  0  0  0
   -2.2111   -1.3737    2.7121 H   0  0  0  0  0  0
    0.5484   -4.6661   -0.2137 H   0  0  0  0  0  0
    0.0606    0.0092   -2.2960 H   0  0  0  0  0  0
   -3.6526    3.1064    2.4960 H   0  0  0  0  0  0
    1.6948   -4.9370   -1.3497 H   0  0  0  0  0  0
   -1.6561    4.4961    3.1006 H   0  0  0  0  0  0
    1.6056   -0.1434    4.5789 H   0  0  0  0  0  0
    1.2201   -0.4507   -3.3730 H   0  0  0  0  0  0
   -3.3310   -2.4171    2.0904 H   0  0  0  0  0  0
    1.4302    0.9130   -2.4730 H   0  0  0  0  0  0
   -1.6320    2.9828    3.7317 H   0  0  0  0  0  0
   -2.0600   -1.9145    1.1628 H   0  0  0  0  0  0
  1  2  1  0  0  0
  1 42  1  0  0  0
  1 43  1  0  0  0
  1 44  1  0  0  0
  2  9  1  0  0  0
  2  3  1  0  0  0
  2 41  1  0  0  0
  3  4  1  0  0  0
  3 45  1  0  0  0
  3 46  1  0  0  0
  4  5  1  0  0  0
  5  6  1  0  0  0
  5  7  1  0  0  0
  5 14  1  0  0  0
  7  8  1  0  0  0
  7  9  1  0  0  0
  7 13  1  0  0  0
  9 10  1  0  0  0
  9 11  1  0  0  0
 11 12  1  0  0  0
 11 65  1  0  0  0
 11 70  1  0  0  0
 12 47  1  0  0  0
 12 48  1  0  0  0
 12 49  1  0  0  0
 13 50  1  0  0  0
 14 15  1  0  0  0
 15 16  1  0  0  0
 15 24  1  0  0  0
 15 17  1  0  0  0
 17 18  1  0  0  0
 17 19  1  0  0  0
 17 40  1  0  0  0
 19 20  1  0  0  0
 19 51  1  0  0  0
 19 52  1  0  0  0
 20 21  1  0  0  0
 20 22  1  0  0  0
 20 39  1  0  0  0
 22 23  1  0  0  0
 22 24  1  0  0  0
 22 27  1  0  0  0
 24 25  1  0  0  0
 24 26  1  0  0  0
 26 53  1  0  0  0
 27 28  1  0  0  0
 28 29  1  0  0  0
 28 35  1  0  0  0
 28 30  1  0  0  0
 30 31  1  0  0  0
 30 32  1  0  0  0
 30 38  1  0  0  0
 32 33  1  0  0  0
 32 54  1  0  0  0
 32 55  1  0  0  0
 33 34  2  0  0  0
 33 56  1  0  0  0
 34 35  1  0  0  0
 34 36  1  0  0  0
 36 37  1  0  0  0
 36 57  1  0  0  0
 36 58  1  0  0  0
 37 59  1  0  0  0
 37 66  1  0  0  0
 38 60  1  0  0  0
 38 68  1  0  0  0
 38 71  1  0  0  0
 39 61  1  0  0  0
 39 64  1  0  0  0
 40 62  1  0  0  0
 40 67  1  0  0  0
 40 69  1  0  0  0
 41 63  1  0  0  0
M  CHG  3  11   1  38   1  40   1
M  END
> <s_m_entry_id>
102

> <s_m_entry_name>
biosynth_p1.0.sdf.95

> <s_m_Source_Path>
/Users/Sebastito/Downloads

> <s_m_Source_File>
biosynth_p1.0.sdf.gz

> <i_m_Source_File_Index>
95

> <chiral flag>
1

> <version>
0

> <i_m_ct_enhanced_stereo_status>
0

> <s_m_source_file>
ligprep_vs.maegz

> <i_m_source_file_index>
95

> <i_lp_mmshare_version>
37011

> <r_epik_Ionization_Penalty>
2.18991

> <r_epik_Ionization_Penalty_Charging>
0.179312

> <r_epik_Ionization_Penalty_Neutral>
2.0106

> <r_epik_State_Penalty>
2.42851

> <r_epik_Charging_Adjusted_Penalty>
2.60782

> <i_epik_Tot_Q>
3

> <i_epik_Tot_abs_Q>
3

> <s_epik_Chemistry_Notes>
This compound contains an acetal/aminal-like group ( X-CH(R)-Y where X, Y are N, S, or O) that may be acid/base labile, releasing an aldehyde.

> <i_f3d_flags>
0

> <s_lp_Force_Field>
OPLS_2005

> <r_lp_Energy>
66.7873

> <b_lp_Chiralities_Consistent>
1

> <s_lp_Variant>
ZINC60184552-11

$$$$
ZINC60184552
                    3D
 Structure written by MMmdl.
 71 73  0  0  1  0            999 V2000
   -3.0695    4.4865    0.7911 C   0  0  0  0  0  0
   -2.5289    3.0792    1.1086 C   0  0  1  0  0  0
   -2.5806    2.2062   -0.1677 C   0  0  0  0  0  0
   -1.8956    0.9674    0.0034 O   0  0  0  0  0  0
   -0.5461    1.0928    0.3247 C   0  0  1  0  0  0
   -0.0939    1.7225   -0.4452 H   0  0  0  0  0  0
   -0.4264    1.7363    1.7213 C   0  0  1  0  0  0
    0.6336    1.8299    1.9545 H   0  0  0  0  0  0
   -1.0784    3.1374    1.6610 C   0  0  2  0  0  0
   -0.4969    3.7309    0.9527 H   0  0  0  0  0  0
   -1.0106    3.8472    2.9627 N   0  3  0  0  0  0
    0.3397    4.2675    3.3874 C   0  0  0  0  0  0
   -1.0233    0.9297    2.7195 O   0  0  0  0  0  0
    0.0973   -0.1422    0.3229 O   0  0  0  0  0  0
    1.5001   -0.1197    0.0590 C   0  0  2  0  0  0
    1.9164    0.8883    0.1165 H   0  0  0  0  0  0
    1.7510   -0.7132   -1.3472 C   0  0  1  0  0  0
    2.8312   -0.7029   -1.4991 H   0  0  0  0  0  0
    1.3147   -2.1925   -1.4285 C   0  0  0  0  0  0
    2.0014   -3.0498   -0.3400 C   0  0  1  0  0  0
    3.0772   -3.0263   -0.5202 H   0  0  0  0  0  0
    1.7345   -2.4907    1.0762 C   0  0  1  0  0  0
    2.2932   -3.0820    1.8045 H   0  0  0  0  0  0
    2.2117   -1.0156    1.0956 C   0  0  2  0  0  0
    3.2664   -1.0335    0.8166 H   0  0  0  0  0  0
    2.2554   -0.4367    2.3801 O   0  0  0  0  0  0
    0.3259   -2.6046    1.2774 O   0  0  0  0  0  0
   -0.0983   -2.9520    2.5574 C   0  0  2  0  0  0
    0.4180   -3.8656    2.8593 H   0  0  0  0  0  0
   -1.6200   -3.2095    2.4808 C   0  0  1  0  0  0
   -1.8030   -4.0033    1.7556 H   0  0  0  0  0  0
   -2.1024   -3.6528    3.8708 C   0  0  0  0  0  0
   -1.5540   -2.7299    4.9334 C   0  0  0  0  0  0
   -0.4904   -1.9383    4.7087 C   0  0  0  0  0  0
    0.1884   -1.9603    3.5091 O   0  0  0  0  0  0
    0.0821   -0.9727    5.7302 C   0  0  0  0  0  0
    1.5106   -0.7813    5.5710 N   0  0  0  0  0  0
   -2.3315   -1.9991    2.0237 N   0  3  0  0  0  0
    1.6065   -4.4667   -0.4440 N   0  3  0  0  0  0
    1.1671    0.1076   -2.4190 N   0  0  0  0  0  0
   -3.4293    2.5103    2.0439 O   0  0  0  0  0  0
   -2.4381    4.9982    0.0638 H   0  0  0  0  0  0
   -3.1183    5.1139    1.6815 H   0  0  0  0  0  0
   -4.0755    4.4395    0.3716 H   0  0  0  0  0  0
   -3.6123    2.0035   -0.4581 H   0  0  0  0  0  0
   -2.1278    2.7371   -1.0069 H   0  0  0  0  0  0
    0.2698    4.8498    4.3063 H   0  0  0  0  0  0
    0.8123    4.8905    2.6275 H   0  0  0  0  0  0
    0.9800    3.4084    3.5861 H   0  0  0  0  0  0
   -1.9469    0.8616    2.5282 H   0  0  0  0  0  0
    0.2297   -2.2654   -1.3372 H   0  0  0  0  0  0
    1.5633   -2.5893   -2.4138 H   0  0  0  0  0  0
    2.7262    0.3811    2.3291 H   0  0  0  0  0  0
   -3.1920   -3.6583    3.9153 H   0  0  0  0  0  0
   -1.7684   -4.6674    4.0911 H   0  0  0  0  0  0
   -2.0512   -2.7252    5.8927 H   0  0  0  0  0  0
   -0.4182   -0.0099    5.6243 H   0  0  0  0  0  0
   -0.1191   -1.3372    6.7381 H   0  0  0  0  0  0
    1.8407   -0.1146    6.2544 H   0  0  0  0  0  0
   -2.1624   -1.2498    2.6797 H   0  0  0  0  0  0
    0.6121   -4.5528   -0.2903 H   0  0  0  0  0  0
    0.1520    0.1399   -2.3335 H   0  0  0  0  0  0
   -3.5558    3.1178    2.7568 H   0  0  0  0  0  0
    2.1033   -5.0093    0.2483 H   0  0  0  0  0  0
   -1.5762    4.6806    2.8882 H   0  0  0  0  0  0
    1.9906   -1.6478    5.7693 H   0  0  0  0  0  0
    1.5009    1.0687   -2.3590 H   0  0  0  0  0  0
   -3.3228   -2.1852    1.9693 H   0  0  0  0  0  0
    1.8342   -4.8124   -1.3656 H   0  0  0  0  0  0
   -1.4083    3.2522    3.6757 H   0  0  0  0  0  0
   -1.9856   -1.7291    1.1138 H   0  0  0  0  0  0
  1  2  1  0  0  0
  1 42  1  0  0  0
  1 43  1  0  0  0
  1 44  1  0  0  0
  2  9  1  0  0  0
  2  3  1  0  0  0
  2 41  1  0  0  0
  3  4  1  0  0  0
  3 45  1  0  0  0
  3 46  1  0  0  0
  4  5  1  0  0  0
  5  6  1  0  0  0
  5  7  1  0  0  0
  5 14  1  0  0  0
  7  8  1  0  0  0
  7  9  1  0  0  0
  7 13  1  0  0  0
  9 10  1  0  0  0
  9 11  1  0  0  0
 11 12  1  0  0  0
 11 65  1  0  0  0
 11 70  1  0  0  0
 12 47  1  0  0  0
 12 48  1  0  0  0
 12 49  1  0  0  0
 13 50  1  0  0  0
 14 15  1  0  0  0
 15 16  1  0  0  0
 15 24  1  0  0  0
 15 17  1  0  0  0
 17 18  1  0  0  0
 17 19  1  0  0  0
 17 40  1  0  0  0
 19 20  1  0  0  0
 19 51  1  0  0  0
 19 52  1  0  0  0
 20 21  1  0  0  0
 20 22  1  0  0  0
 20 39  1  0  0  0
 22 23  1  0  0  0
 22 24  1  0  0  0
 22 27  1  0  0  0
 24 25  1  0  0  0
 24 26  1  0  0  0
 26 53  1  0  0  0
 27 28  1  0  0  0
 28 29  1  0  0  0
 28 35  1  0  0  0
 28 30  1  0  0  0
 30 31  1  0  0  0
 30 32  1  0  0  0
 30 38  1  0  0  0
 32 33  1  0  0  0
 32 54  1  0  0  0
 32 55  1  0  0  0
 33 34  2  0  0  0
 33 56  1  0  0  0
 34 35  1  0  0  0
 34 36  1  0  0  0
 36 37  1  0  0  0
 36 57  1  0  0  0
 36 58  1  0  0  0
 37 59  1  0  0  0
 37 66  1  0  0  0
 38 60  1  0  0  0
 38 68  1  0  0  0
 38 71  1  0  0  0
 39 61  1  0  0  0
 39 64  1  0  0  0
 39 69  1  0  0  0
 40 62  1  0  0  0
 40 67  1  0  0  0
 41 63  1  0  0  0
M  CHG  3  11   1  38   1  39   1
M  END
> <s_m_entry_id>
102

> <s_m_entry_name>
biosynth_p1.0.sdf.95

> <s_m_Source_Path>
/Users/Sebastito/Downloads

> <s_m_Source_File>
biosynth_p1.0.sdf.gz

> <i_m_Source_File_Index>
95

> <chiral flag>
1

> <version>
0

> <i_m_ct_enhanced_stereo_status>
0

> <s_m_source_file>
ligprep_vs.maegz

> <i_m_source_file_index>
95

> <i_lp_mmshare_version>
37011

> <r_epik_Ionization_Penalty>
2.2111

> <r_epik_Ionization_Penalty_Charging>
0.195249

> <r_epik_Ionization_Penalty_Neutral>
2.01585

> <r_epik_State_Penalty>
2.46226

> <r_epik_Charging_Adjusted_Penalty>
2.65751

> <i_epik_Tot_Q>
3

> <i_epik_Tot_abs_Q>
3

> <s_epik_Chemistry_Notes>
This compound contains an acetal/aminal-like group ( X-CH(R)-Y where X, Y are N, S, or O) that may be acid/base labile, releasing an aldehyde.

> <i_f3d_flags>
0

> <s_lp_Force_Field>
OPLS_2005

> <r_lp_Energy>
67.335

> <b_lp_Chiralities_Consistent>
1

> <s_lp_Variant>
ZINC60184552-12

$$$$
ZINC60184552
                    3D
 Structure written by MMmdl.
 73 75  0  0  1  0            999 V2000
   -2.8138    4.7303   -1.1031 C   0  0  0  0  0  0
   -2.3717    3.2618   -1.2481 C   0  0  1  0  0  0
   -0.8385    3.1996   -1.4314 C   0  0  0  0  0  0
   -0.3507    1.8626   -1.3646 O   0  0  0  0  0  0
   -0.6069    1.1996   -0.1634 C   0  0  1  0  0  0
   -0.2204    1.8018    0.6624 H   0  0  0  0  0  0
   -2.1290    1.0088   -0.0217 C   0  0  1  0  0  0
   -2.3164    0.5254    0.9376 H   0  0  0  0  0  0
   -2.7918    2.4071   -0.0236 C   0  0  2  0  0  0
   -2.4125    2.9168    0.8645 H   0  0  0  0  0  0
   -4.2660    2.3030    0.1106 N   0  3  0  0  0  0
   -4.8476    3.0516    1.2423 C   0  0  0  0  0  0
   -2.6359    0.1598   -1.0368 O   0  0  0  0  0  0
    0.0088   -0.0506   -0.0933 O   0  0  0  0  0  0
    1.4349   -0.0141   -0.1579 C   0  0  2  0  0  0
    1.8129    1.0107   -0.1879 H   0  0  0  0  0  0
    1.9008   -0.7606   -1.4323 C   0  0  1  0  0  0
    2.9859   -0.6665   -1.4971 H   0  0  0  0  0  0
    1.5615   -2.2648   -1.3758 C   0  0  0  0  0  0
    2.1654   -2.9292   -0.1208 C   0  0  1  0  0  0
    3.2508   -2.8353   -0.1802 H   0  0  0  0  0  0
    1.6932   -2.2310    1.1748 C   0  0  1  0  0  0
    2.2302   -2.6634    2.0221 H   0  0  0  0  0  0
    2.0237   -0.7225    1.0825 C   0  0  2  0  0  0
    3.1085   -0.6540    0.9872 H   0  0  0  0  0  0
    1.7581   -0.0253    2.2819 O   0  0  0  0  0  0
    0.2833   -2.4269    1.2816 O   0  0  0  0  0  0
   -0.1376   -2.9853    2.4868 C   0  0  2  0  0  0
    0.4440   -3.8916    2.6710 H   0  0  0  0  0  0
   -1.6316   -3.3583    2.3515 C   0  0  1  0  0  0
   -1.7389   -4.0633    1.5261 H   0  0  0  0  0  0
   -2.0780   -4.0226    3.6643 C   0  0  0  0  0  0
   -1.6046   -3.2170    4.8525 C   0  0  0  0  0  0
   -0.5979   -2.3299    4.7563 C   0  0  0  0  0  0
    0.0702   -2.1154    3.5719 O   0  0  0  0  0  0
   -0.1057   -1.4523    5.8896 C   0  0  0  0  0  0
    1.1143   -2.0194    6.4887 N   0  3  0  0  0  0
   -2.4520   -2.1711    2.0425 N   0  3  0  0  0  0
    1.8884   -4.3783   -0.0926 N   0  3  0  0  0  0
    1.3731   -0.1384   -2.6608 N   0  3  0  0  0  0
   -2.9706    2.7878   -2.4406 O   0  0  0  0  0  0
   -2.4136    5.1766   -0.1921 H   0  0  0  0  0  0
   -3.8994    4.8256   -1.0679 H   0  0  0  0  0  0
   -2.4650    5.3340   -1.9420 H   0  0  0  0  0  0
   -0.5429    3.6379   -2.3855 H   0  0  0  0  0  0
   -0.3405    3.7869   -0.6579 H   0  0  0  0  0  0
   -5.9302    2.9252    1.2526 H   0  0  0  0  0  0
   -4.6305    4.1168    1.1636 H   0  0  0  0  0  0
   -4.4536    2.6853    2.1907 H   0  0  0  0  0  0
   -3.5791    0.1369   -0.9830 H   0  0  0  0  0  0
    0.4792   -2.4043   -1.3906 H   0  0  0  0  0  0
    1.9453   -2.7588   -2.2697 H   0  0  0  0  0  0
    0.8254   -0.0256    2.4317 H   0  0  0  0  0  0
   -3.1638   -4.1215    3.6950 H   0  0  0  0  0  0
   -1.6650   -5.0286    3.7472 H   0  0  0  0  0  0
   -2.1067   -3.3820    5.7952 H   0  0  0  0  0  0
    0.1073   -0.4513    5.5132 H   0  0  0  0  0  0
   -0.8759   -1.3574    6.6559 H   0  0  0  0  0  0
    1.4278   -1.4236    7.2421 H   0  0  0  0  0  0
   -2.3682   -1.4998    2.7922 H   0  0  0  0  0  0
    0.8923   -4.5362   -0.0392 H   0  0  0  0  0  0
    0.3637   -0.1825   -2.6590 H   0  0  0  0  0  0
   -2.6788    3.3269   -3.1610 H   0  0  0  0  0  0
    2.3402   -4.7975    0.7079 H   0  0  0  0  0  0
   -4.6824    2.6346   -0.7486 H   0  0  0  0  0  0
    1.8403   -2.0830    5.7893 H   0  0  0  0  0  0
    1.7290   -0.6261   -3.4709 H   0  0  0  0  0  0
   -3.4188   -2.4493    1.9465 H   0  0  0  0  0  0
    2.2477   -4.8063   -0.9347 H   0  0  0  0  0  0
   -4.5087    1.3301    0.2243 H   0  0  0  0  0  0
    1.6620    0.8289   -2.7024 H   0  0  0  0  0  0
    0.9162   -2.9401    6.8545 H   0  0  0  0  0  0
   -2.1328   -1.7586    1.1775 H   0  0  0  0  0  0
  1  2  1  0  0  0
  1 42  1  0  0  0
  1 43  1  0  0  0
  1 44  1  0  0  0
  2  9  1  0  0  0
  2  3  1  0  0  0
  2 41  1  0  0  0
  3  4  1  0  0  0
  3 45  1  0  0  0
  3 46  1  0  0  0
  4  5  1  0  0  0
  5  6  1  0  0  0
  5  7  1  0  0  0
  5 14  1  0  0  0
  7  8  1  0  0  0
  7  9  1  0  0  0
  7 13  1  0  0  0
  9 10  1  0  0  0
  9 11  1  0  0  0
 11 12  1  0  0  0
 11 65  1  0  0  0
 11 70  1  0  0  0
 12 47  1  0  0  0
 12 48  1  0  0  0
 12 49  1  0  0  0
 13 50  1  0  0  0
 14 15  1  0  0  0
 15 16  1  0  0  0
 15 24  1  0  0  0
 15 17  1  0  0  0
 17 18  1  0  0  0
 17 19  1  0  0  0
 17 40  1  0  0  0
 19 20  1  0  0  0
 19 51  1  0  0  0
 19 52  1  0  0  0
 20 21  1  0  0  0
 20 22  1  0  0  0
 20 39  1  0  0  0
 22 23  1  0  0  0
 22 24  1  0  0  0
 22 27  1  0  0  0
 24 25  1  0  0  0
 24 26  1  0  0  0
 26 53  1  0  0  0
 27 28  1  0  0  0
 28 29  1  0  0  0
 28 35  1  0  0  0
 28 30  1  0  0  0
 30 31  1  0  0  0
 30 32  1  0  0  0
 30 38  1  0  0  0
 32 33  1  0  0  0
 32 54  1  0  0  0
 32 55  1  0  0  0
 33 34  2  0  0  0
 33 56  1  0  0  0
 34 35  1  0  0  0
 34 36  1  0  0  0
 36 37  1  0  0  0
 36 57  1  0  0  0
 36 58  1  0  0  0
 37 59  1  0  0  0
 37 66  1  0  0  0
 37 72  1  0  0  0
 38 60  1  0  0  0
 38 68  1  0  0  0
 38 73  1  0  0  0
 39 61  1  0  0  0
 39 64  1  0  0  0
 39 69  1  0  0  0
 40 62  1  0  0  0
 40 67  1  0  0  0
 40 71  1  0  0  0
 41 63  1  0  0  0
M  CHG  5  11   1  37   1  38   1  39   1  40   1
M  END
> <s_m_entry_id>
103

> <s_m_entry_name>
biosynth_p1.0.sdf.96

> <s_m_Source_Path>
/Users/Sebastito/Downloads

> <s_m_Source_File>
biosynth_p1.0.sdf.gz

> <i_m_Source_File_Index>
96

> <chiral flag>
1

> <version>
0

> <i_m_ct_enhanced_stereo_status>
0

> <s_m_source_file>
ligprep_vs.maegz

> <i_m_source_file_index>
96

> <i_lp_mmshare_version>
37011

> <r_epik_Ionization_Penalty>
0.793538

> <r_epik_Ionization_Penalty_Charging>
0.79321

> <r_epik_Ionization_Penalty_Neutral>
0.000328124

> <r_epik_State_Penalty>
0.67119

> <r_epik_Charging_Adjusted_Penalty>
1.4644

> <i_epik_Tot_Q>
5

> <i_epik_Tot_abs_Q>
5

> <s_epik_Chemistry_Notes>
This compound contains an acetal/aminal-like group ( X-CH(R)-Y where X, Y are N, S, or O) that may be acid/base labile, releasing an aldehyde.

> <i_f3d_flags>
0

> <s_lp_Force_Field>
OPLS_2005

> <r_lp_Energy>
98.0142

> <b_lp_Chiralities_Consistent>
1

> <s_lp_Variant>
ZINC60184552-1

$$$$
ZINC60184552
                    3D
 Structure written by MMmdl.
 72 74  0  0  1  0            999 V2000
   -2.7624    4.7761   -0.8168 C   0  0  0  0  0  0
   -2.3126    3.3366   -1.1296 C   0  0  1  0  0  0
   -0.7736    3.2951   -1.2745 C   0  0  0  0  0  0
   -0.2810    1.9593   -1.3497 O   0  0  0  0  0  0
   -0.5762    1.1684   -0.2377 C   0  0  1  0  0  0
   -0.2254    1.6746    0.6647 H   0  0  0  0  0  0
   -2.0987    0.9588   -0.1773 C   0  0  1  0  0  0
   -2.3169    0.3587    0.7049 H   0  0  0  0  0  0
   -2.7691    2.3411   -0.0304 C   0  0  2  0  0  0
   -2.4263    2.7417    0.9259 H   0  0  0  0  0  0
   -4.2447    2.2081    0.0334 N   0  3  0  0  0  0
   -4.8712    2.7630    1.2490 C   0  0  0  0  0  0
   -2.5734    0.2535   -1.3099 O   0  0  0  0  0  0
    0.0403   -0.0787   -0.2823 O   0  0  0  0  0  0
    1.4648   -0.0383   -0.2554 C   0  0  2  0  0  0
    1.8459    0.9812   -0.3491 H   0  0  0  0  0  0
    1.9704   -0.8689   -1.4560 C   0  0  1  0  0  0
    3.0576   -0.7870   -1.4919 H   0  0  0  0  0  0
    1.6081   -2.3628   -1.3115 C   0  0  0  0  0  0
    2.1412   -2.9506    0.0131 C   0  0  1  0  0  0
    3.2302   -2.8892   -0.0062 H   0  0  0  0  0  0
    1.6374   -2.1533    1.2383 C   0  0  1  0  0  0
    2.1346   -2.5284    2.1360 H   0  0  0  0  0  0
    1.9963   -0.6615    1.0549 C   0  0  2  0  0  0
    3.0847   -0.6146    0.9965 H   0  0  0  0  0  0
    1.6972    0.1160    2.1963 O   0  0  0  0  0  0
    0.2219   -2.3059    1.3123 O   0  0  0  0  0  0
   -0.2363   -2.9109    2.4803 C   0  0  2  0  0  0
    0.2990   -3.8550    2.6032 H   0  0  0  0  0  0
   -1.7450   -3.2037    2.3230 C   0  0  1  0  0  0
   -1.8629   -3.8609    1.4608 H   0  0  0  0  0  0
   -2.2148   -3.9572    3.5786 C   0  0  0  0  0  0
   -1.6885   -3.2866    4.8274 C   0  0  0  0  0  0
   -0.6524   -2.4288    4.7949 C   0  0  0  0  0  0
    0.0142   -2.1383    3.6269 O   0  0  0  0  0  0
   -0.1157   -1.6724    5.9916 C   0  0  0  0  0  0
    1.1422   -2.2785    6.4573 N   0  3  0  0  0  0
   -2.5299   -1.9791    2.0902 N   0  0  0  0  0  0
    1.8183   -4.3853    0.1306 N   0  3  0  0  0  0
    1.4758   -0.3176   -2.7318 N   0  3  0  0  0  0
   -2.8707    3.0123   -2.3904 O   0  0  0  0  0  0
   -2.3823    5.1081    0.1499 H   0  0  0  0  0  0
   -3.8488    4.8657   -0.7919 H   0  0  0  0  0  0
   -2.3975    5.4774   -1.5683 H   0  0  0  0  0  0
   -0.4523    3.8437   -2.1608 H   0  0  0  0  0  0
   -0.3012    3.7871   -0.4226 H   0  0  0  0  0  0
   -5.9526    2.6370    1.2000 H   0  0  0  0  0  0
   -4.6566    3.8274    1.3484 H   0  0  0  0  0  0
   -4.5073    2.2492    2.1394 H   0  0  0  0  0  0
   -2.4036    0.7746   -2.0807 H   0  0  0  0  0  0
    0.5255   -2.4903   -1.3656 H   0  0  0  0  0  0
    2.0222   -2.9217   -2.1520 H   0  0  0  0  0  0
    2.0771    0.9747    2.0862 H   0  0  0  0  0  0
   -3.3041   -4.0001    3.6156 H   0  0  0  0  0  0
   -1.8573   -4.9872    3.5659 H   0  0  0  0  0  0
   -2.1874   -3.5152    5.7580 H   0  0  0  0  0  0
    0.0626   -0.6323    5.7171 H   0  0  0  0  0  0
   -0.8452   -1.6785    6.8022 H   0  0  0  0  0  0
    1.4877   -1.7656    7.2561 H   0  0  0  0  0  0
   -3.5194   -2.2079    2.0026 H   0  0  0  0  0  0
    0.8154   -4.5061    0.1525 H   0  0  0  0  0  0
    0.4666   -0.3632   -2.7504 H   0  0  0  0  0  0
   -2.5704    3.6453   -3.0257 H   0  0  0  0  0  0
    2.2204   -4.7569    0.9795 H   0  0  0  0  0  0
   -4.6368    2.6679   -0.7764 H   0  0  0  0  0  0
    1.8270   -2.2469    5.7156 H   0  0  0  0  0  0
    1.8505   -0.8513   -3.5033 H   0  0  0  0  0  0
   -2.4457   -1.3521    2.8889 H   0  0  0  0  0  0
    2.1972   -4.8842   -0.6622 H   0  0  0  0  0  0
   -4.4732    1.2254   -0.0213 H   0  0  0  0  0  0
    1.7665    0.6461   -2.8194 H   0  0  0  0  0  0
    0.9759   -3.2389    6.7225 H   0  0  0  0  0  0
  1  2  1  0  0  0
  1 42  1  0  0  0
  1 43  1  0  0  0
  1 44  1  0  0  0
  2  9  1  0  0  0
  2  3  1  0  0  0
  2 41  1  0  0  0
  3  4  1  0  0  0
  3 45  1  0  0  0
  3 46  1  0  0  0
  4  5  1  0  0  0
  5  6  1  0  0  0
  5  7  1  0  0  0
  5 14  1  0  0  0
  7  8  1  0  0  0
  7  9  1  0  0  0
  7 13  1  0  0  0
  9 10  1  0  0  0
  9 11  1  0  0  0
 11 12  1  0  0  0
 11 65  1  0  0  0
 11 70  1  0  0  0
 12 47  1  0  0  0
 12 48  1  0  0  0
 12 49  1  0  0  0
 13 50  1  0  0  0
 14 15  1  0  0  0
 15 16  1  0  0  0
 15 24  1  0  0  0
 15 17  1  0  0  0
 17 18  1  0  0  0
 17 19  1  0  0  0
 17 40  1  0  0  0
 19 20  1  0  0  0
 19 51  1  0  0  0
 19 52  1  0  0  0
 20 21  1  0  0  0
 20 22  1  0  0  0
 20 39  1  0  0  0
 22 23  1  0  0  0
 22 24  1  0  0  0
 22 27  1  0  0  0
 24 25  1  0  0  0
 24 26  1  0  0  0
 26 53  1  0  0  0
 27 28  1  0  0  0
 28 29  1  0  0  0
 28 35  1  0  0  0
 28 30  1  0  0  0
 30 31  1  0  0  0
 30 32  1  0  0  0
 30 38  1  0  0  0
 32 33  1  0  0  0
 32 54  1  0  0  0
 32 55  1  0  0  0
 33 34  2  0  0  0
 33 56  1  0  0  0
 34 35  1  0  0  0
 34 36  1  0  0  0
 36 37  1  0  0  0
 36 57  1  0  0  0
 36 58  1  0  0  0
 37 59  1  0  0  0
 37 66  1  0  0  0
 37 72  1  0  0  0
 38 60  1  0  0  0
 38 68  1  0  0  0
 39 61  1  0  0  0
 39 64  1  0  0  0
 39 69  1  0  0  0
 40 62  1  0  0  0
 40 67  1  0  0  0
 40 71  1  0  0  0
 41 63  1  0  0  0
M  CHG  4  11   1  37   1  39   1  40   1
M  END
> <s_m_entry_id>
103

> <s_m_entry_name>
biosynth_p1.0.sdf.96

> <s_m_Source_Path>
/Users/Sebastito/Downloads

> <s_m_Source_File>
biosynth_p1.0.sdf.gz

> <i_m_Source_File_Index>
96

> <chiral flag>
1

> <version>
0

> <i_m_ct_enhanced_stereo_status>
0

> <s_m_source_file>
ligprep_vs.maegz

> <i_m_source_file_index>
96

> <i_lp_mmshare_version>
37011

> <r_epik_Ionization_Penalty>
0.713919

> <r_epik_Ionization_Penalty_Charging>
0.276887

> <r_epik_Ionization_Penalty_Neutral>
0.437032

> <r_epik_State_Penalty>
0.777653

> <r_epik_Charging_Adjusted_Penalty>
1.05454

> <i_epik_Tot_Q>
4

> <i_epik_Tot_abs_Q>
4

> <s_epik_Chemistry_Notes>
This compound contains an acetal/aminal-like group ( X-CH(R)-Y where X, Y are N, S, or O) that may be acid/base labile, releasing an aldehyde.

> <i_f3d_flags>
0

> <s_lp_Force_Field>
OPLS_2005

> <r_lp_Energy>
77.2008

> <b_lp_Chiralities_Consistent>
1

> <s_lp_Variant>
ZINC60184552-2

$$$$
ZINC60184552
                    3D
 Structure written by MMmdl.
 72 74  0  0  1  0            999 V2000
   -2.5101    4.5884   -0.0467 C   0  0  0  0  0  0
   -2.1346    3.1471   -0.4412 C   0  0  1  0  0  0
   -0.6318    3.0814   -0.7987 C   0  0  0  0  0  0
   -0.1863    1.7389   -0.9731 O   0  0  0  0  0  0
   -0.3455    0.9238    0.1472 C   0  0  1  0  0  0
    0.1411    1.3967    1.0035 H   0  0  0  0  0  0
   -1.8482    0.7469    0.4278 C   0  0  1  0  0  0
   -1.9397    0.1273    1.3181 H   0  0  0  0  0  0
   -2.4583    2.1436    0.6963 C   0  0  2  0  0  0
   -1.9852    2.5340    1.5995 H   0  0  0  0  0  0
   -3.9142    2.0790    0.9738 N   0  3  0  0  0  0
   -4.2852    1.4876    2.2746 C   0  0  0  0  0  0
   -2.5030    0.0676   -0.6276 O   0  0  0  0  0  0
    0.2229   -0.3346   -0.0245 O   0  0  0  0  0  0
    1.6480   -0.3420   -0.0566 C   0  0  2  0  0  0
    2.0641    0.6682   -0.0403 H   0  0  0  0  0  0
    2.1025   -1.0423   -1.3577 C   0  0  1  0  0  0
    3.1909   -0.9867   -1.4062 H   0  0  0  0  0  0
    1.7061   -2.5352   -1.3821 C   0  0  0  0  0  0
    2.2231   -3.2830   -0.1313 C   0  0  1  0  0  0
    3.3133   -3.2435   -0.1407 H   0  0  0  0  0  0
    1.7240   -2.6201    1.1739 C   0  0  1  0  0  0
    2.1727   -3.1426    2.0207 H   0  0  0  0  0  0
    2.1808   -1.1385    1.1534 C   0  0  2  0  0  0
    3.2665   -1.1574    1.0461 H   0  0  0  0  0  0
    2.0197   -0.4583    2.3792 O   0  0  0  0  0  0
    0.3027   -2.7806    1.1632 O   0  0  0  0  0  0
   -0.3433   -2.7711    2.3994 C   0  0  2  0  0  0
    0.2666   -3.3069    3.1298 H   0  0  0  0  0  0
   -1.6927   -3.5065    2.2293 C   0  0  1  0  0  0
   -1.4948   -4.5178    1.8722 H   0  0  0  0  0  0
   -2.3779   -3.5662    3.6035 C   0  0  0  0  0  0
   -2.3367   -2.2105    4.2694 C   0  0  0  0  0  0
   -1.4729   -1.2529    3.8877 C   0  0  0  0  0  0
   -0.5487   -1.4700    2.8869 O   0  0  0  0  0  0
   -1.4253    0.1333    4.5076 C   0  0  0  0  0  0
   -0.5378    1.0406    3.8063 N   0  0  0  0  0  0
   -2.5467   -2.8294    1.2330 N   0  3  0  0  0  0
    1.8736   -4.7160   -0.1773 N   0  3  0  0  0  0
    1.6094   -0.3310   -2.5523 N   0  3  0  0  0  0
   -2.8678    2.8511   -1.6163 O   0  0  0  0  0  0
   -1.9800    4.9036    0.8527 H   0  0  0  0  0  0
   -3.5779    4.6921    0.1489 H   0  0  0  0  0  0
   -2.2556    5.2951   -0.8377 H   0  0  0  0  0  0
   -0.4237    3.6460   -1.7086 H   0  0  0  0  0  0
   -0.0349    3.5424   -0.0098 H   0  0  0  0  0  0
   -5.3665    1.5342    2.4045 H   0  0  0  0  0  0
   -3.8228    2.0366    3.0955 H   0  0  0  0  0  0
   -3.9854    0.4418    2.3389 H   0  0  0  0  0  0
   -2.4426    0.5993   -1.4083 H   0  0  0  0  0  0
    0.6213   -2.6297   -1.4522 H   0  0  0  0  0  0
    2.1106   -3.0038   -2.2805 H   0  0  0  0  0  0
    2.5329   -0.8974    3.0411 H   0  0  0  0  0  0
   -3.4127   -3.8956    3.5028 H   0  0  0  0  0  0
   -1.8772   -4.2829    4.2553 H   0  0  0  0  0  0
   -3.0336   -2.0323    5.0757 H   0  0  0  0  0  0
   -2.4296    0.5565    4.5172 H   0  0  0  0  0  0
   -1.0999    0.0501    5.5450 H   0  0  0  0  0  0
    0.4097    0.6902    3.8385 H   0  0  0  0  0  0
   -2.7422   -1.8889    1.5436 H   0  0  0  0  0  0
    0.8694   -4.8228   -0.1672 H   0  0  0  0  0  0
    0.5992   -0.3372   -2.5593 H   0  0  0  0  0  0
   -2.6563    3.4958   -2.2755 H   0  0  0  0  0  0
    2.2693   -5.1885    0.6234 H   0  0  0  0  0  0
   -4.2698    3.0245    0.9594 H   0  0  0  0  0  0
   -0.7984    1.1036    2.8345 H   0  0  0  0  0  0
    1.9540   -0.7847   -3.3867 H   0  0  0  0  0  0
   -3.4146   -3.3368    1.1325 H   0  0  0  0  0  0
    2.2449   -5.1287   -1.0217 H   0  0  0  0  0  0
   -4.3615    1.5624    0.2296 H   0  0  0  0  0  0
    1.9353    0.6253   -2.5355 H   0  0  0  0  0  0
   -2.0706   -2.7969    0.3431 H   0  0  0  0  0  0
  1  2  1  0  0  0
  1 42  1  0  0  0
  1 43  1  0  0  0
  1 44  1  0  0  0
  2  9  1  0  0  0
  2  3  1  0  0  0
  2 41  1  0  0  0
  3  4  1  0  0  0
  3 45  1  0  0  0
  3 46  1  0  0  0
  4  5  1  0  0  0
  5  6  1  0  0  0
  5  7  1  0  0  0
  5 14  1  0  0  0
  7  8  1  0  0  0
  7  9  1  0  0  0
  7 13  1  0  0  0
  9 10  1  0  0  0
  9 11  1  0  0  0
 11 12  1  0  0  0
 11 65  1  0  0  0
 11 70  1  0  0  0
 12 47  1  0  0  0
 12 48  1  0  0  0
 12 49  1  0  0  0
 13 50  1  0  0  0
 14 15  1  0  0  0
 15 16  1  0  0  0
 15 24  1  0  0  0
 15 17  1  0  0  0
 17 18  1  0  0  0
 17 19  1  0  0  0
 17 40  1  0  0  0
 19 20  1  0  0  0
 19 51  1  0  0  0
 19 52  1  0  0  0
 20 21  1  0  0  0
 20 22  1  0  0  0
 20 39  1  0  0  0
 22 23  1  0  0  0
 22 24  1  0  0  0
 22 27  1  0  0  0
 24 25  1  0  0  0
 24 26  1  0  0  0
 26 53  1  0  0  0
 27 28  1  0  0  0
 28 29  1  0  0  0
 28 35  1  0  0  0
 28 30  1  0  0  0
 30 31  1  0  0  0
 30 32  1  0  0  0
 30 38  1  0  0  0
 32 33  1  0  0  0
 32 54  1  0  0  0
 32 55  1  0  0  0
 33 34  2  0  0  0
 33 56  1  0  0  0
 34 35  1  0  0  0
 34 36  1  0  0  0
 36 37  1  0  0  0
 36 57  1  0  0  0
 36 58  1  0  0  0
 37 59  1  0  0  0
 37 66  1  0  0  0
 38 60  1  0  0  0
 38 68  1  0  0  0
 38 72  1  0  0  0
 39 61  1  0  0  0
 39 64  1  0  0  0
 39 69  1  0  0  0
 40 62  1  0  0  0
 40 67  1  0  0  0
 40 71  1  0  0  0
 41 63  1  0  0  0
M  CHG  4  11   1  38   1  39   1  40   1
M  END
> <s_m_entry_id>
103

> <s_m_entry_name>
biosynth_p1.0.sdf.96

> <s_m_Source_Path>
/Users/Sebastito/Downloads

> <s_m_Source_File>
biosynth_p1.0.sdf.gz

> <i_m_Source_File_Index>
96

> <chiral flag>
1

> <version>
0

> <i_m_ct_enhanced_stereo_status>
0

> <s_m_source_file>
ligprep_vs.maegz

> <i_m_source_file_index>
96

> <i_lp_mmshare_version>
37011

> <r_epik_Ionization_Penalty>
1.02815

> <r_epik_Ionization_Penalty_Charging>
0.339125

> <r_epik_Ionization_Penalty_Neutral>
0.68902

> <r_epik_State_Penalty>
1.12491

> <r_epik_Charging_Adjusted_Penalty>
1.46403

> <i_epik_Tot_Q>
4

> <i_epik_Tot_abs_Q>
4

> <s_epik_Chemistry_Notes>
This compound contains an acetal/aminal-like group ( X-CH(R)-Y where X, Y are N, S, or O) that may be acid/base labile, releasing an aldehyde.

> <i_f3d_flags>
0

> <s_lp_Force_Field>
OPLS_2005

> <r_lp_Energy>
74.0604

> <b_lp_Chiralities_Consistent>
1

> <s_lp_Variant>
ZINC60184552-3

$$$$
ZINC60184552
                    3D
 Structure written by MMmdl.
 71 73  0  0  1  0            999 V2000
   -2.8043    4.5063    0.3491 C   0  0  0  0  0  0
   -2.3266    3.1764   -0.2651 C   0  0  1  0  0  0
   -0.7941    3.2158   -0.4598 C   0  0  0  0  0  0
   -0.2775    1.9418   -0.8330 O   0  0  0  0  0  0
   -0.5016    0.9302    0.1010 C   0  0  1  0  0  0
   -0.1155    1.2488    1.0712 H   0  0  0  0  0  0
   -2.0149    0.6628    0.1895 C   0  0  1  0  0  0
   -2.1627   -0.1022    0.9490 H   0  0  0  0  0  0
   -2.7256    1.9676    0.6216 C   0  0  2  0  0  0
   -2.3863    2.1994    1.6321 H   0  0  0  0  0  0
   -4.1990    1.8059    0.6871 N   0  3  0  0  0  0
   -4.7008    0.9505    1.7808 C   0  0  0  0  0  0
   -2.5293    0.1564   -1.0279 O   0  0  0  0  0  0
    0.1317   -0.2607   -0.2412 O   0  0  0  0  0  0
    1.5562   -0.2039   -0.2471 C   0  0  2  0  0  0
    1.9221    0.8225   -0.3215 H   0  0  0  0  0  0
    2.0353   -0.9855   -1.4904 C   0  0  1  0  0  0
    3.1200   -0.8887   -1.5551 H   0  0  0  0  0  0
    1.6978   -2.4902   -1.3913 C   0  0  0  0  0  0
    2.2479   -3.1186   -0.0897 C   0  0  1  0  0  0
    3.3367   -3.0528   -0.1156 H   0  0  0  0  0  0
    1.7437   -2.3668    1.1639 C   0  0  1  0  0  0
    2.2216   -2.8009    2.0439 H   0  0  0  0  0  0
    2.1379   -0.8765    1.0154 C   0  0  2  0  0  0
    3.2214   -0.8638    0.8879 H   0  0  0  0  0  0
    1.9798   -0.1082    2.1876 O   0  0  0  0  0  0
    0.3329   -2.5807    1.1863 O   0  0  0  0  0  0
   -0.3081   -2.4730    2.4192 C   0  0  2  0  0  0
    0.3347   -2.8945    3.1947 H   0  0  0  0  0  0
   -1.6074   -3.3068    2.3413 C   0  0  1  0  0  0
   -1.3175   -4.3389    2.1417 H   0  0  0  0  0  0
   -2.2943   -3.2563    3.7154 C   0  0  0  0  0  0
   -2.3187   -1.8420    4.2456 C   0  0  0  0  0  0
   -1.5140   -0.8810    3.7597 C   0  0  0  0  0  0
   -0.5800   -1.1439    2.7813 O   0  0  0  0  0  0
   -1.5283    0.5587    4.2394 C   0  0  0  0  0  0
   -0.2461    1.2147    4.0761 N   0  0  0  0  0  0
   -2.4978   -2.8570    1.2557 N   0  0  0  0  0  0
    1.9284   -4.5571   -0.0132 N   0  3  0  0  0  0
    1.4981   -0.3916   -2.7296 N   0  3  0  0  0  0
   -2.9191    3.0991   -1.5491 O   0  0  0  0  0  0
   -2.3895    4.6534    1.3470 H   0  0  0  0  0  0
   -3.8907    4.5460    0.4368 H   0  0  0  0  0  0
   -2.4967    5.3580   -0.2593 H   0  0  0  0  0  0
   -0.5177    3.9476   -1.2200 H   0  0  0  0  0  0
   -0.3027    3.5318    0.4622 H   0  0  0  0  0  0
   -5.7901    0.9239    1.7531 H   0  0  0  0  0  0
   -4.3992    1.3429    2.7516 H   0  0  0  0  0  0
   -4.3396   -0.0735    1.6874 H   0  0  0  0  0  0
   -2.0899   -0.6573   -1.2234 H   0  0  0  0  0  0
    0.6166   -2.6303   -1.4431 H   0  0  0  0  0  0
    2.1129   -3.0140   -2.2536 H   0  0  0  0  0  0
    2.4894   -0.5012    2.8802 H   0  0  0  0  0  0
   -3.3119   -3.6433    3.6519 H   0  0  0  0  0  0
   -1.7616   -3.8802    4.4338 H   0  0  0  0  0  0
   -3.0198   -1.6229    5.0378 H   0  0  0  0  0  0
   -2.2823    1.1110    3.6820 H   0  0  0  0  0  0
   -1.8129    0.5943    5.2915 H   0  0  0  0  0  0
    0.4487    0.7580    4.6500 H   0  0  0  0  0  0
   -3.3412   -3.4292    1.2326 H   0  0  0  0  0  0
    0.9256   -4.6784    0.0183 H   0  0  0  0  0  0
    0.4890   -0.4401   -2.7180 H   0  0  0  0  0  0
   -2.6301    3.8397   -2.0609 H   0  0  0  0  0  0
    2.3386   -4.9529    0.8209 H   0  0  0  0  0  0
   -4.6035    2.7236    0.8065 H   0  0  0  0  0  0
    0.0668    1.1376    3.1193 H   0  0  0  0  0  0
    1.8497   -0.8961   -3.5311 H   0  0  0  0  0  0
   -2.8012   -1.8996    1.4255 H   0  0  0  0  0  0
    2.2983   -5.0321   -0.8245 H   0  0  0  0  0  0
   -4.5138    1.4336   -0.1980 H   0  0  0  0  0  0
    1.7828    0.5756   -2.7927 H   0  0  0  0  0  0
  1  2  1  0  0  0
  1 42  1  0  0  0
  1 43  1  0  0  0
  1 44  1  0  0  0
  2  9  1  0  0  0
  2  3  1  0  0  0
  2 41  1  0  0  0
  3  4  1  0  0  0
  3 45  1  0  0  0
  3 46  1  0  0  0
  4  5  1  0  0  0
  5  6  1  0  0  0
  5  7  1  0  0  0
  5 14  1  0  0  0
  7  8  1  0  0  0
  7  9  1  0  0  0
  7 13  1  0  0  0
  9 10  1  0  0  0
  9 11  1  0  0  0
 11 12  1  0  0  0
 11 65  1  0  0  0
 11 70  1  0  0  0
 12 47  1  0  0  0
 12 48  1  0  0  0
 12 49  1  0  0  0
 13 50  1  0  0  0
 14 15  1  0  0  0
 15 16  1  0  0  0
 15 24  1  0  0  0
 15 17  1  0  0  0
 17 18  1  0  0  0
 17 19  1  0  0  0
 17 40  1  0  0  0
 19 20  1  0  0  0
 19 51  1  0  0  0
 19 52  1  0  0  0
 20 21  1  0  0  0
 20 22  1  0  0  0
 20 39  1  0  0  0
 22 23  1  0  0  0
 22 24  1  0  0  0
 22 27  1  0  0  0
 24 25  1  0  0  0
 24 26  1  0  0  0
 26 53  1  0  0  0
 27 28  1  0  0  0
 28 29  1  0  0  0
 28 35  1  0  0  0
 28 30  1  0  0  0
 30 31  1  0  0  0
 30 32  1  0  0  0
 30 38  1  0  0  0
 32 33  1  0  0  0
 32 54  1  0  0  0
 32 55  1  0  0  0
 33 34  2  0  0  0
 33 56  1  0  0  0
 34 35  1  0  0  0
 34 36  1  0  0  0
 36 37  1  0  0  0
 36 57  1  0  0  0
 36 58  1  0  0  0
 37 59  1  0  0  0
 37 66  1  0  0  0
 38 60  1  0  0  0
 38 68  1  0  0  0
 39 61  1  0  0  0
 39 64  1  0  0  0
 39 69  1  0  0  0
 40 62  1  0  0  0
 40 67  1  0  0  0
 40 71  1  0  0  0
 41 63  1  0  0  0
M  CHG  3  11   1  39   1  40   1
M  END
> <s_m_entry_id>
103

> <s_m_entry_name>
biosynth_p1.0.sdf.96

> <s_m_Source_Path>
/Users/Sebastito/Downloads

> <s_m_Source_File>
biosynth_p1.0.sdf.gz

> <i_m_Source_File_Index>
96

> <chiral flag>
1

> <version>
0

> <i_m_ct_enhanced_stereo_status>
0

> <s_m_source_file>
ligprep_vs.maegz

> <i_m_source_file_index>
96

> <i_lp_mmshare_version>
37011

> <r_epik_Ionization_Penalty>
2.07721

> <r_epik_Ionization_Penalty_Charging>
0.163818

> <r_epik_Ionization_Penalty_Neutral>
1.91339

> <r_epik_State_Penalty>
1.83326

> <r_epik_Charging_Adjusted_Penalty>
1.99708

> <i_epik_Tot_Q>
3

> <i_epik_Tot_abs_Q>
3

> <s_epik_Chemistry_Notes>
This compound contains an acetal/aminal-like group ( X-CH(R)-Y where X, Y are N, S, or O) that may be acid/base labile, releasing an aldehyde.

> <i_f3d_flags>
0

> <s_lp_Force_Field>
OPLS_2005

> <r_lp_Energy>
63.2565

> <b_lp_Chiralities_Consistent>
1

> <s_lp_Variant>
ZINC60184552-4

$$$$
ZINC60184552
                    3D
 Structure written by MMmdl.
 72 74  0  0  1  0            999 V2000
   -3.1291    4.4867   -1.8385 C   0  0  0  0  0  0
   -2.5257    3.0688   -1.8584 C   0  0  1  0  0  0
   -0.9920    3.1567   -1.6918 C   0  0  0  0  0  0
   -0.4079    1.8730   -1.4938 O   0  0  0  0  0  0
   -0.8638    1.1917   -0.3654 C   0  0  1  0  0  0
   -0.7304    1.8274    0.5134 H   0  0  0  0  0  0
   -2.3535    0.8537   -0.5551 C   0  0  1  0  0  0
   -2.6860    0.3522    0.3536 H   0  0  0  0  0  0
   -3.1368    2.1764   -0.7459 C   0  0  2  0  0  0
   -3.0488    2.7375    0.1864 H   0  0  0  0  0  0
   -4.5848    1.9447   -0.9720 N   0  3  0  0  0  0
   -5.3429    1.4710    0.2028 C   0  0  0  0  0  0
   -2.5524   -0.0410   -1.6340 O   0  0  0  0  0  0
   -0.1708    0.0054   -0.1357 O   0  0  0  0  0  0
    1.2122    0.1713    0.1744 C   0  0  2  0  0  0
    1.4999    1.2249    0.1974 H   0  0  0  0  0  0
    2.0441   -0.5551   -0.9089 C   0  0  1  0  0  0
    3.0996   -0.3767   -0.6985 H   0  0  0  0  0  0
    1.8077   -2.0791   -0.8835 C   0  0  0  0  0  0
    2.1276   -2.6628    0.5068 C   0  0  1  0  0  0
    3.1670   -2.4056    0.7156 H   0  0  0  0  0  0
    1.2834   -1.9892    1.6156 C   0  0  1  0  0  0
    1.6143   -2.3481    2.5927 H   0  0  0  0  0  0
    1.5132   -0.4621    1.5532 C   0  0  2  0  0  0
    2.5762   -0.3036    1.7420 H   0  0  0  0  0  0
    0.8795    0.2218    2.6162 O   0  0  0  0  0  0
   -0.1018   -2.2527    1.3941 O   0  0  0  0  0  0
   -0.6500   -3.2051    2.2520 C   0  0  2  0  0  0
   -0.0451   -4.1122    2.2044 H   0  0  0  0  0  0
   -2.0866   -3.5153    1.7769 C   0  0  1  0  0  0
   -2.0421   -3.8737    0.7478 H   0  0  0  0  0  0
   -2.6651   -4.6129    2.6862 C   0  0  0  0  0  0
   -2.3752   -4.3128    4.1401 C   0  0  0  0  0  0
   -1.4309   -3.4295    4.5128 C   0  0  0  0  0  0
   -0.6503   -2.7716    3.5898 O   0  0  0  0  0  0
   -1.0766   -3.0906    5.9473 C   0  0  0  0  0  0
   -1.2684   -1.6552    6.2117 N   0  3  0  0  0  0
   -2.9221   -2.2998    1.8018 N   0  3  0  0  0  0
    2.0492   -4.1311    0.5368 N   0  0  0  0  0  0
    1.8040    0.0029   -2.2526 N   0  3  0  0  0  0
   -2.7891    2.5468   -3.1483 O   0  0  0  0  0  0
   -2.9684    4.9730   -0.8757 H   0  0  0  0  0  0
   -4.2036    4.4736   -2.0238 H   0  0  0  0  0  0
   -2.6764    5.1208   -2.6021 H   0  0  0  0  0  0
   -0.5326    3.6249   -2.5633 H   0  0  0  0  0  0
   -0.7389    3.7864   -0.8372 H   0  0  0  0  0  0
   -6.3990    1.3840   -0.0530 H   0  0  0  0  0  0
   -5.2525    2.1725    1.0326 H   0  0  0  0  0  0
   -4.9966    0.4913    0.5318 H   0  0  0  0  0  0
   -1.9824   -0.7860   -1.5196 H   0  0  0  0  0  0
    0.7773   -2.3084   -1.1600 H   0  0  0  0  0  0
    2.4402   -2.5572   -1.6329 H   0  0  0  0  0  0
    1.2178    1.1041    2.6505 H   0  0  0  0  0  0
   -3.7411   -4.7105    2.5370 H   0  0  0  0  0  0
   -2.2224   -5.5804    2.4462 H   0  0  0  0  0  0
   -2.9488   -4.8529    4.8797 H   0  0  0  0  0  0
   -1.6902   -3.6700    6.6382 H   0  0  0  0  0  0
   -0.0350   -3.3544    6.1334 H   0  0  0  0  0  0
   -1.0140   -1.4551    7.1690 H   0  0  0  0  0  0
   -2.9750   -1.9501    2.7474 H   0  0  0  0  0  0
    1.1137   -4.4447    0.2827 H   0  0  0  0  0  0
    0.8343   -0.1256   -2.5047 H   0  0  0  0  0  0
   -2.4013    3.1199   -3.7929 H   0  0  0  0  0  0
    2.6864   -4.5365   -0.1484 H   0  0  0  0  0  0
   -4.9926    2.8218   -1.2636 H   0  0  0  0  0  0
   -2.2363   -1.4088    6.0645 H   0  0  0  0  0  0
    2.3918   -0.4689   -2.9256 H   0  0  0  0  0  0
   -3.8499   -2.5229    1.4706 H   0  0  0  0  0  0
    2.0206    0.9896   -2.2537 H   0  0  0  0  0  0
   -4.6875    1.2826   -1.7286 H   0  0  0  0  0  0
   -0.6816   -1.1166    5.5905 H   0  0  0  0  0  0
   -2.5060   -1.6004    1.2044 H   0  0  0  0  0  0
  1  2  1  0  0  0
  1 42  1  0  0  0
  1 43  1  0  0  0
  1 44  1  0  0  0
  2  9  1  0  0  0
  2  3  1  0  0  0
  2 41  1  0  0  0
  3  4  1  0  0  0
  3 45  1  0  0  0
  3 46  1  0  0  0
  4  5  1  0  0  0
  5  6  1  0  0  0
  5  7  1  0  0  0
  5 14  1  0  0  0
  7  8  1  0  0  0
  7  9  1  0  0  0
  7 13  1  0  0  0
  9 10  1  0  0  0
  9 11  1  0  0  0
 11 12  1  0  0  0
 11 65  1  0  0  0
 11 70  1  0  0  0
 12 47  1  0  0  0
 12 48  1  0  0  0
 12 49  1  0  0  0
 13 50  1  0  0  0
 14 15  1  0  0  0
 15 16  1  0  0  0
 15 24  1  0  0  0
 15 17  1  0  0  0
 17 18  1  0  0  0
 17 19  1  0  0  0
 17 40  1  0  0  0
 19 20  1  0  0  0
 19 51  1  0  0  0
 19 52  1  0  0  0
 20 21  1  0  0  0
 20 22  1  0  0  0
 20 39  1  0  0  0
 22 23  1  0  0  0
 22 24  1  0  0  0
 22 27  1  0  0  0
 24 25  1  0  0  0
 24 26  1  0  0  0
 26 53  1  0  0  0
 27 28  1  0  0  0
 28 29  1  0  0  0
 28 35  1  0  0  0
 28 30  1  0  0  0
 30 31  1  0  0  0
 30 32  1  0  0  0
 30 38  1  0  0  0
 32 33  1  0  0  0
 32 54  1  0  0  0
 32 55  1  0  0  0
 33 34  2  0  0  0
 33 56  1  0  0  0
 34 35  1  0  0  0
 34 36  1  0  0  0
 36 37  1  0  0  0
 36 57  1  0  0  0
 36 58  1  0  0  0
 37 59  1  0  0  0
 37 66  1  0  0  0
 37 71  1  0  0  0
 38 60  1  0  0  0
 38 68  1  0  0  0
 38 72  1  0  0  0
 39 61  1  0  0  0
 39 64  1  0  0  0
 40 62  1  0  0  0
 40 67  1  0  0  0
 40 69  1  0  0  0
 41 63  1  0  0  0
M  CHG  4  11   1  37   1  38   1  40   1
M  END
> <s_m_entry_id>
103

> <s_m_entry_name>
biosynth_p1.0.sdf.96

> <s_m_Source_Path>
/Users/Sebastito/Downloads

> <s_m_Source_File>
biosynth_p1.0.sdf.gz

> <i_m_Source_File_Index>
96

> <chiral flag>
1

> <version>
0

> <i_m_ct_enhanced_stereo_status>
0

> <s_m_source_file>
ligprep_vs.maegz

> <i_m_source_file_index>
96

> <i_lp_mmshare_version>
37011

> <r_epik_Ionization_Penalty>
1.85001

> <r_epik_Ionization_Penalty_Charging>
0.58264

> <r_epik_Ionization_Penalty_Neutral>
1.26737

> <r_epik_State_Penalty>
1.93692

> <r_epik_Charging_Adjusted_Penalty>
2.51956

> <i_epik_Tot_Q>
4

> <i_epik_Tot_abs_Q>
4

> <s_epik_Chemistry_Notes>
This compound contains an acetal/aminal-like group ( X-CH(R)-Y where X, Y are N, S, or O) that may be acid/base labile, releasing an aldehyde.

> <i_f3d_flags>
0

> <s_lp_Force_Field>
OPLS_2005

> <r_lp_Energy>
81.203

> <b_lp_Chiralities_Consistent>
1

> <s_lp_Variant>
ZINC60184552-5

$$$$
ZINC60184552
                    3D
 Structure written by MMmdl.
 72 74  0  0  1  0            999 V2000
   -3.2067    4.3903   -1.3728 C   0  0  0  0  0  0
   -2.5851    2.9855   -1.4963 C   0  0  1  0  0  0
   -1.0485    3.0871   -1.3735 C   0  0  0  0  0  0
   -0.4431    1.8026   -1.2726 O   0  0  0  0  0  0
   -0.8504    1.0483   -0.1737 C   0  0  1  0  0  0
   -0.6984    1.6348    0.7357 H   0  0  0  0  0  0
   -2.3403    0.7005   -0.3330 C   0  0  1  0  0  0
   -2.6331    0.1467    0.5582 H   0  0  0  0  0  0
   -3.1482    2.0192   -0.4212 C   0  0  2  0  0  0
   -3.0397    2.5255    0.5399 H   0  0  0  0  0  0
   -4.5988    1.7789   -0.6183 N   0  3  0  0  0  0
   -5.3120    1.2046    0.5394 C   0  0  0  0  0  0
   -2.5641   -0.1360   -1.4525 O   0  0  0  0  0  0
   -0.1327   -0.1390   -0.0342 O   0  0  0  0  0  0
    1.2528    0.0382    0.2595 C   0  0  2  0  0  0
    1.5102    1.0895    0.4083 H   0  0  0  0  0  0
    2.0977   -0.5311   -0.9050 C   0  0  1  0  0  0
    3.1424   -0.3957   -0.6217 H   0  0  0  0  0  0
    1.8882   -2.0489   -1.0718 C   0  0  0  0  0  0
    2.2333   -2.7992    0.2306 C   0  0  1  0  0  0
    3.2871   -2.6221    0.4506 H   0  0  0  0  0  0
    1.4008   -2.2796    1.4247 C   0  0  1  0  0  0
    1.7626   -2.7579    2.3376 H   0  0  0  0  0  0
    1.5926   -0.7476    1.5456 C   0  0  2  0  0  0
    2.6561   -0.5889    1.7308 H   0  0  0  0  0  0
    0.9764   -0.1977    2.6931 O   0  0  0  0  0  0
    0.0326   -2.5952    1.1660 O   0  0  0  0  0  0
   -0.5958   -3.3177    2.1775 C   0  0  2  0  0  0
   -0.0012   -4.2104    2.3840 H   0  0  0  0  0  0
   -1.9961   -3.7392    1.6757 C   0  0  1  0  0  0
   -1.8734   -4.3465    0.7780 H   0  0  0  0  0  0
   -2.6717   -4.5718    2.7782 C   0  0  0  0  0  0
   -2.5088   -3.9063    4.1259 C   0  0  0  0  0  0
   -1.5702   -2.9691    4.3500 C   0  0  0  0  0  0
   -0.6867   -2.5796    3.3697 O   0  0  0  0  0  0
   -1.3521   -2.2568    5.6710 C   0  0  0  0  0  0
   -1.3249   -0.7961    5.4845 N   0  3  0  0  0  0
   -2.8089   -2.5619    1.3165 N   0  3  0  0  0  0
    2.0973   -4.2579    0.0617 N   0  3  0  0  0  0
    1.9092    0.2057   -2.1627 N   0  0  0  0  0  0
   -2.8834    2.5352   -2.8052 O   0  0  0  0  0  0
   -3.0211    4.8205   -0.3880 H   0  0  0  0  0  0
   -4.2865    4.3721   -1.5247 H   0  0  0  0  0  0
   -2.7873    5.0754   -2.1109 H   0  0  0  0  0  0
   -0.6239    3.6132   -2.2295 H   0  0  0  0  0  0
   -0.7757    3.6681   -0.4909 H   0  0  0  0  0  0
   -6.3765    1.1331    0.3157 H   0  0  0  0  0  0
   -5.1933    1.8346    1.4213 H   0  0  0  0  0  0
   -4.9511    0.2028    0.7715 H   0  0  0  0  0  0
   -1.8659   -0.7715   -1.4988 H   0  0  0  0  0  0
    0.8597   -2.2564   -1.3711 H   0  0  0  0  0  0
    2.5221   -2.4154   -1.8805 H   0  0  0  0  0  0
    1.2818    0.6915    2.7954 H   0  0  0  0  0  0
   -3.7317   -4.7100    2.5615 H   0  0  0  0  0  0
   -2.2274   -5.5662    2.8347 H   0  0  0  0  0  0
   -3.1717   -4.2244    4.9180 H   0  0  0  0  0  0
   -2.1418   -2.5148    6.3775 H   0  0  0  0  0  0
   -0.4054   -2.5820    6.1033 H   0  0  0  0  0  0
   -1.1548   -0.3481    6.3741 H   0  0  0  0  0  0
   -2.9324   -1.9780    2.1306 H   0  0  0  0  0  0
    1.1382   -4.4883   -0.1535 H   0  0  0  0  0  0
    0.9419    0.1383   -2.4761 H   0  0  0  0  0  0
   -2.4882    3.1279   -3.4272 H   0  0  0  0  0  0
    2.3773   -4.7276    0.9111 H   0  0  0  0  0  0
   -5.0284    2.6682   -0.8307 H   0  0  0  0  0  0
   -2.2118   -0.4832    5.1171 H   0  0  0  0  0  0
    2.1015    1.1976   -2.0277 H   0  0  0  0  0  0
   -3.7109   -2.8675    0.9788 H   0  0  0  0  0  0
    2.6912   -4.5626   -0.6969 H   0  0  0  0  0  0
   -4.7146    1.1737   -1.4194 H   0  0  0  0  0  0
   -0.5851   -0.5526    4.8408 H   0  0  0  0  0  0
   -2.3372   -2.0398    0.5919 H   0  0  0  0  0  0
  1  2  1  0  0  0
  1 42  1  0  0  0
  1 43  1  0  0  0
  1 44  1  0  0  0
  2  9  1  0  0  0
  2  3  1  0  0  0
  2 41  1  0  0  0
  3  4  1  0  0  0
  3 45  1  0  0  0
  3 46  1  0  0  0
  4  5  1  0  0  0
  5  6  1  0  0  0
  5  7  1  0  0  0
  5 14  1  0  0  0
  7  8  1  0  0  0
  7  9  1  0  0  0
  7 13  1  0  0  0
  9 10  1  0  0  0
  9 11  1  0  0  0
 11 12  1  0  0  0
 11 65  1  0  0  0
 11 70  1  0  0  0
 12 47  1  0  0  0
 12 48  1  0  0  0
 12 49  1  0  0  0
 13 50  1  0  0  0
 14 15  1  0  0  0
 15 16  1  0  0  0
 15 24  1  0  0  0
 15 17  1  0  0  0
 17 18  1  0  0  0
 17 19  1  0  0  0
 17 40  1  0  0  0
 19 20  1  0  0  0
 19 51  1  0  0  0
 19 52  1  0  0  0
 20 21  1  0  0  0
 20 22  1  0  0  0
 20 39  1  0  0  0
 22 23  1  0  0  0
 22 24  1  0  0  0
 22 27  1  0  0  0
 24 25  1  0  0  0
 24 26  1  0  0  0
 26 53  1  0  0  0
 27 28  1  0  0  0
 28 29  1  0  0  0
 28 35  1  0  0  0
 28 30  1  0  0  0
 30 31  1  0  0  0
 30 32  1  0  0  0
 30 38  1  0  0  0
 32 33  1  0  0  0
 32 54  1  0  0  0
 32 55  1  0  0  0
 33 34  2  0  0  0
 33 56  1  0  0  0
 34 35  1  0  0  0
 34 36  1  0  0  0
 36 37  1  0  0  0
 36 57  1  0  0  0
 36 58  1  0  0  0
 37 59  1  0  0  0
 37 66  1  0  0  0
 37 71  1  0  0  0
 38 60  1  0  0  0
 38 68  1  0  0  0
 38 72  1  0  0  0
 39 61  1  0  0  0
 39 64  1  0  0  0
 39 69  1  0  0  0
 40 62  1  0  0  0
 40 67  1  0  0  0
 41 63  1  0  0  0
M  CHG  4  11   1  37   1  38   1  39   1
M  END
> <s_m_entry_id>
103

> <s_m_entry_name>
biosynth_p1.0.sdf.96

> <s_m_Source_Path>
/Users/Sebastito/Downloads

> <s_m_Source_File>
biosynth_p1.0.sdf.gz

> <i_m_Source_File_Index>
96

> <chiral flag>
1

> <version>
0

> <i_m_ct_enhanced_stereo_status>
0

> <s_m_source_file>
ligprep_vs.maegz

> <i_m_source_file_index>
96

> <i_lp_mmshare_version>
37011

> <r_epik_Ionization_Penalty>
1.95127

> <r_epik_Ionization_Penalty_Charging>
0.631188

> <r_epik_Ionization_Penalty_Neutral>
1.32008

> <r_epik_State_Penalty>
2.00464

> <r_epik_Charging_Adjusted_Penalty>
2.63583

> <i_epik_Tot_Q>
4

> <i_epik_Tot_abs_Q>
4

> <s_epik_Chemistry_Notes>
This compound contains an acetal/aminal-like group ( X-CH(R)-Y where X, Y are N, S, or O) that may be acid/base labile, releasing an aldehyde.

> <i_f3d_flags>
0

> <s_lp_Force_Field>
OPLS_2005

> <r_lp_Energy>
79.9129

> <b_lp_Chiralities_Consistent>
1

> <s_lp_Variant>
ZINC60184552-6

$$$$
ZINC60184552
                    3D
 Structure written by MMmdl.
 71 73  0  0  1  0            999 V2000
   -3.0849    4.4432    0.6995 C   0  0  0  0  0  0
   -2.5207    3.0573    1.0674 C   0  0  1  0  0  0
   -2.5316    2.1467   -0.1821 C   0  0  0  0  0  0
   -1.8288    0.9274    0.0418 O   0  0  0  0  0  0
   -0.4881    1.0805    0.3870 C   0  0  1  0  0  0
   -0.0251    1.6882   -0.3934 H   0  0  0  0  0  0
   -0.4016    1.7763    1.7598 C   0  0  1  0  0  0
    0.6535    1.9001    2.0018 H   0  0  0  0  0  0
   -1.0808    3.1608    1.6376 C   0  0  2  0  0  0
   -0.5010    3.7389    0.9156 H   0  0  0  0  0  0
   -1.0464    3.9188    2.9121 N   0  3  0  0  0  0
    0.2849    4.4096    3.3205 C   0  0  0  0  0  0
   -0.9872    0.9907    2.7818 O   0  0  0  0  0  0
    0.1640   -0.1471    0.4503 O   0  0  0  0  0  0
    1.5626   -0.1408    0.1742 C   0  0  2  0  0  0
    1.9997    0.8532    0.2903 H   0  0  0  0  0  0
    1.8016   -0.6668   -1.2616 C   0  0  1  0  0  0
    2.8825   -0.6941   -1.4055 H   0  0  0  0  0  0
    1.3051   -2.1197   -1.4221 C   0  0  0  0  0  0
    1.9544   -3.0629   -0.3827 C   0  0  1  0  0  0
    3.0294   -3.0823   -0.5687 H   0  0  0  0  0  0
    1.7199   -2.5687    1.0638 C   0  0  1  0  0  0
    2.2641   -3.2173    1.7528 H   0  0  0  0  0  0
    2.2474   -1.1118    1.1600 C   0  0  2  0  0  0
    3.2987   -1.1517    0.8705 H   0  0  0  0  0  0
    2.3256   -0.5964    2.4730 O   0  0  0  0  0  0
    0.3105   -2.6588    1.2688 O   0  0  0  0  0  0
   -0.1192   -2.9948    2.5493 C   0  0  2  0  0  0
    0.3874   -3.9151    2.8464 H   0  0  0  0  0  0
   -1.6430   -3.2459    2.4829 C   0  0  1  0  0  0
   -1.8086   -4.0671    1.7848 H   0  0  0  0  0  0
   -2.1185   -3.6917    3.8759 C   0  0  0  0  0  0
   -1.5364   -2.7989    4.9469 C   0  0  0  0  0  0
   -0.4678   -2.0159    4.7166 C   0  0  0  0  0  0
    0.1862   -2.0168    3.5073 O   0  0  0  0  0  0
    0.1461   -1.0633    5.7196 C   0  0  0  0  0  0
    1.5085   -1.4996    6.0657 N   0  3  0  0  0  0
   -2.3780   -2.0645    1.9954 N   0  0  0  0  0  0
    1.4840   -4.4496   -0.5571 N   0  3  0  0  0  0
    1.2650    0.2330   -2.2938 N   0  0  0  0  0  0
   -3.4241    2.4995    2.0062 O   0  0  0  0  0  0
   -2.4505    4.9482   -0.0298 H   0  0  0  0  0  0
   -3.1650    5.0941    1.5708 H   0  0  0  0  0  0
   -4.0812    4.3620    0.2626 H   0  0  0  0  0  0
   -3.5537    1.9161   -0.4855 H   0  0  0  0  0  0
   -2.0708    2.6594   -1.0282 H   0  0  0  0  0  0
    0.1930    5.0064    4.2277 H   0  0  0  0  0  0
    0.7234    5.0380    2.5447 H   0  0  0  0  0  0
    0.9663    3.5858    3.5312 H   0  0  0  0  0  0
   -1.8763    0.7920    2.5260 H   0  0  0  0  0  0
    0.2181   -2.1519   -1.3324 H   0  0  0  0  0  0
    1.5368   -2.4732   -2.4276 H   0  0  0  0  0  0
    2.7687    0.2379    2.4387 H   0  0  0  0  0  0
   -3.2075   -3.6745    3.9343 H   0  0  0  0  0  0
   -1.8064   -4.7166    4.0789 H   0  0  0  0  0  0
   -2.0202   -2.8056    5.9131 H   0  0  0  0  0  0
    0.1840   -0.0611    5.2925 H   0  0  0  0  0  0
   -0.4621   -1.0152    6.6235 H   0  0  0  0  0  0
    1.9137   -0.8539    6.7283 H   0  0  0  0  0  0
   -3.3818   -2.2411    2.0034 H   0  0  0  0  0  0
    0.4886   -4.4876   -0.3891 H   0  0  0  0  0  0
    1.4674   -0.1312   -3.2240 H   0  0  0  0  0  0
   -3.5606    3.1182    2.7070 H   0  0  0  0  0  0
    1.9594   -5.0557    0.0962 H   0  0  0  0  0  0
   -1.6460    4.7245    2.8049 H   0  0  0  0  0  0
    2.0737   -1.5244    5.2288 H   0  0  0  0  0  0
    0.2501    0.2910   -2.2189 H   0  0  0  0  0  0
   -2.2125   -1.2675    2.6079 H   0  0  0  0  0  0
    1.6765   -4.7558   -1.5002 H   0  0  0  0  0  0
   -1.4228    3.3334    3.6443 H   0  0  0  0  0  0
    1.4725   -2.4225    6.4747 H   0  0  0  0  0  0
  1  2  1  0  0  0
  1 42  1  0  0  0
  1 43  1  0  0  0
  1 44  1  0  0  0
  2  9  1  0  0  0
  2  3  1  0  0  0
  2 41  1  0  0  0
  3  4  1  0  0  0
  3 45  1  0  0  0
  3 46  1  0  0  0
  4  5  1  0  0  0
  5  6  1  0  0  0
  5  7  1  0  0  0
  5 14  1  0  0  0
  7  8  1  0  0  0
  7  9  1  0  0  0
  7 13  1  0  0  0
  9 10  1  0  0  0
  9 11  1  0  0  0
 11 12  1  0  0  0
 11 65  1  0  0  0
 11 70  1  0  0  0
 12 47  1  0  0  0
 12 48  1  0  0  0
 12 49  1  0  0  0
 13 50  1  0  0  0
 14 15  1  0  0  0
 15 16  1  0  0  0
 15 24  1  0  0  0
 15 17  1  0  0  0
 17 18  1  0  0  0
 17 19  1  0  0  0
 17 40  1  0  0  0
 19 20  1  0  0  0
 19 51  1  0  0  0
 19 52  1  0  0  0
 20 21  1  0  0  0
 20 22  1  0  0  0
 20 39  1  0  0  0
 22 23  1  0  0  0
 22 24  1  0  0  0
 22 27  1  0  0  0
 24 25  1  0  0  0
 24 26  1  0  0  0
 26 53  1  0  0  0
 27 28  1  0  0  0
 28 29  1  0  0  0
 28 35  1  0  0  0
 28 30  1  0  0  0
 30 31  1  0  0  0
 30 32  1  0  0  0
 30 38  1  0  0  0
 32 33  1  0  0  0
 32 54  1  0  0  0
 32 55  1  0  0  0
 33 34  2  0  0  0
 33 56  1  0  0  0
 34 35  1  0  0  0
 34 36  1  0  0  0
 36 37  1  0  0  0
 36 57  1  0  0  0
 36 58  1  0  0  0
 37 59  1  0  0  0
 37 66  1  0  0  0
 37 71  1  0  0  0
 38 60  1  0  0  0
 38 68  1  0  0  0
 39 61  1  0  0  0
 39 64  1  0  0  0
 39 69  1  0  0  0
 40 62  1  0  0  0
 40 67  1  0  0  0
 41 63  1  0  0  0
M  CHG  3  11   1  37   1  39   1
M  END
> <s_m_entry_id>
103

> <s_m_entry_name>
biosynth_p1.0.sdf.96

> <s_m_Source_Path>
/Users/Sebastito/Downloads

> <s_m_Source_File>
biosynth_p1.0.sdf.gz

> <i_m_Source_File_Index>
96

> <chiral flag>
1

> <version>
0

> <i_m_ct_enhanced_stereo_status>
0

> <s_m_source_file>
ligprep_vs.maegz

> <i_m_source_file_index>
96

> <i_lp_mmshare_version>
37011

> <r_epik_Ionization_Penalty>
1.98152

> <r_epik_Ionization_Penalty_Charging>
0.157133

> <r_epik_Ionization_Penalty_Neutral>
1.82439

> <r_epik_State_Penalty>
2.16151

> <r_epik_Charging_Adjusted_Penalty>
2.31864

> <i_epik_Tot_Q>
3

> <i_epik_Tot_abs_Q>
3

> <s_epik_Chemistry_Notes>
This compound contains an acetal/aminal-like group ( X-CH(R)-Y where X, Y are N, S, or O) that may be acid/base labile, releasing an aldehyde.

> <i_f3d_flags>
0

> <s_lp_Force_Field>
OPLS_2005

> <r_lp_Energy>
71.0212

> <b_lp_Chiralities_Consistent>
1

> <s_lp_Variant>
ZINC60184552-7

$$$$
ZINC60184552
                    3D
 Structure written by MMmdl.
 71 73  0  0  1  0            999 V2000
   -3.1216    4.5533    0.6556 C   0  0  0  0  0  0
   -2.5540    3.1627    1.0003 C   0  0  1  0  0  0
   -2.5974    2.2641   -0.2564 C   0  0  0  0  0  0
   -1.8998    1.0380   -0.0570 O   0  0  0  0  0  0
   -0.5504    1.1732    0.2595 C   0  0  1  0  0  0
   -0.0976    1.7730   -0.5329 H   0  0  0  0  0  0
   -0.4230    1.8681    1.6324 C   0  0  1  0  0  0
    0.6384    1.9936    1.8429 H   0  0  0  0  0  0
   -1.1012    3.2560    1.5386 C   0  0  2  0  0  0
   -0.5365    3.8390    0.8086 H   0  0  0  0  0  0
   -1.0365    4.0035    2.8190 N   0  3  0  0  0  0
    0.3076    4.4687    3.2155 C   0  0  0  0  0  0
   -0.9750    1.0817    2.6717 O   0  0  0  0  0  0
    0.0836   -0.0663    0.2964 O   0  0  0  0  0  0
    1.4913   -0.0784    0.0669 C   0  0  2  0  0  0
    1.9148    0.9274    0.0963 H   0  0  0  0  0  0
    1.7609   -0.7186   -1.3178 C   0  0  1  0  0  0
    2.8332   -0.6617   -1.5100 H   0  0  0  0  0  0
    1.3537   -2.2079   -1.3610 C   0  0  0  0  0  0
    2.0301   -3.0179   -0.2338 C   0  0  1  0  0  0
    3.1068   -2.9223   -0.3790 H   0  0  0  0  0  0
    1.7087   -2.4201    1.1519 C   0  0  1  0  0  0
    2.2418   -2.9847    1.9198 H   0  0  0  0  0  0
    2.1716   -0.9426    1.1544 C   0  0  2  0  0  0
    3.2364   -0.9558    0.9172 H   0  0  0  0  0  0
    2.1489   -0.3412    2.4331 O   0  0  0  0  0  0
    0.2940   -2.5052    1.3034 O   0  0  0  0  0  0
   -0.1547   -2.9648    2.5352 C   0  0  2  0  0  0
    0.3030   -3.9402    2.7142 H   0  0  0  0  0  0
   -1.6901   -3.1234    2.4567 C   0  0  1  0  0  0
   -1.9030   -3.8437    1.6660 H   0  0  0  0  0  0
   -2.1786   -3.7085    3.7928 C   0  0  0  0  0  0
   -1.5311   -2.9942    4.9574 C   0  0  0  0  0  0
   -0.4249   -2.2439    4.8078 C   0  0  0  0  0  0
    0.2129   -2.1243    3.5962 O   0  0  0  0  0  0
    0.2620   -1.4739    5.9145 C   0  0  0  0  0  0
    1.6386   -1.9634    6.0939 N   0  3  0  0  0  0
   -2.3658   -1.8552    2.1268 N   0  0  0  0  0  0
    1.7162   -4.4528   -0.3026 N   0  0  0  0  0  0
    1.1126    0.0355   -2.4063 N   0  3  0  0  0  0
   -3.4367    2.5980    1.9538 O   0  0  0  0  0  0
   -2.5046    5.0599   -0.0874 H   0  0  0  0  0  0
   -3.1767    5.1995    1.5320 H   0  0  0  0  0  0
   -4.1292    4.4786    0.2441 H   0  0  0  0  0  0
   -3.6272    2.0437   -0.5408 H   0  0  0  0  0  0
   -2.1503    2.7806   -1.1074 H   0  0  0  0  0  0
    0.2348    5.0707    4.1213 H   0  0  0  0  0  0
    0.7543    5.0847    2.4347 H   0  0  0  0  0  0
    0.9719    3.6309    3.4255 H   0  0  0  0  0  0
   -1.8657    0.8647    2.4373 H   0  0  0  0  0  0
    0.2688   -2.3011   -1.2887 H   0  0  0  0  0  0
    1.6300   -2.6321   -2.3274 H   0  0  0  0  0  0
    2.5979    0.4886    2.3830 H   0  0  0  0  0  0
   -3.2636   -3.6320    3.8719 H   0  0  0  0  0  0
   -1.9292   -4.7679    3.8609 H   0  0  0  0  0  0
   -1.9980   -3.1041    5.9253 H   0  0  0  0  0  0
    0.2832   -0.4141    5.6588 H   0  0  0  0  0  0
   -0.2867   -1.5792    6.8509 H   0  0  0  0  0  0
    2.0917   -1.4415    6.8302 H   0  0  0  0  0  0
   -3.3758   -1.9889    2.1002 H   0  0  0  0  0  0
    2.1853   -4.9576    0.4483 H   0  0  0  0  0  0
    0.1106    0.0130   -2.2782 H   0  0  0  0  0  0
   -3.5694    3.2165    2.6558 H   0  0  0  0  0  0
    0.7161   -4.6030   -0.1761 H   0  0  0  0  0  0
   -1.6245    4.8198    2.7276 H   0  0  0  0  0  0
    2.1506   -1.8447    5.2311 H   0  0  0  0  0  0
    1.3450   -0.3897   -3.2929 H   0  0  0  0  0  0
   -2.1793   -1.1603    2.8479 H   0  0  0  0  0  0
    1.4348    0.9925   -2.3996 H   0  0  0  0  0  0
   -1.4129    3.4186    3.5517 H   0  0  0  0  0  0
    1.6175   -2.9430    6.3386 H   0  0  0  0  0  0
  1  2  1  0  0  0
  1 42  1  0  0  0
  1 43  1  0  0  0
  1 44  1  0  0  0
  2  9  1  0  0  0
  2  3  1  0  0  0
  2 41  1  0  0  0
  3  4  1  0  0  0
  3 45  1  0  0  0
  3 46  1  0  0  0
  4  5  1  0  0  0
  5  6  1  0  0  0
  5  7  1  0  0  0
  5 14  1  0  0  0
  7  8  1  0  0  0
  7  9  1  0  0  0
  7 13  1  0  0  0
  9 10  1  0  0  0
  9 11  1  0  0  0
 11 12  1  0  0  0
 11 65  1  0  0  0
 11 70  1  0  0  0
 12 47  1  0  0  0
 12 48  1  0  0  0
 12 49  1  0  0  0
 13 50  1  0  0  0
 14 15  1  0  0  0
 15 16  1  0  0  0
 15 24  1  0  0  0
 15 17  1  0  0  0
 17 18  1  0  0  0
 17 19  1  0  0  0
 17 40  1  0  0  0
 19 20  1  0  0  0
 19 51  1  0  0  0
 19 52  1  0  0  0
 20 21  1  0  0  0
 20 22  1  0  0  0
 20 39  1  0  0  0
 22 23  1  0  0  0
 22 24  1  0  0  0
 22 27  1  0  0  0
 24 25  1  0  0  0
 24 26  1  0  0  0
 26 53  1  0  0  0
 27 28  1  0  0  0
 28 29  1  0  0  0
 28 35  1  0  0  0
 28 30  1  0  0  0
 30 31  1  0  0  0
 30 32  1  0  0  0
 30 38  1  0  0  0
 32 33  1  0  0  0
 32 54  1  0  0  0
 32 55  1  0  0  0
 33 34  2  0  0  0
 33 56  1  0  0  0
 34 35  1  0  0  0
 34 36  1  0  0  0
 36 37  1  0  0  0
 36 57  1  0  0  0
 36 58  1  0  0  0
 37 59  1  0  0  0
 37 66  1  0  0  0
 37 71  1  0  0  0
 38 60  1  0  0  0
 38 68  1  0  0  0
 39 61  1  0  0  0
 39 64  1  0  0  0
 40 62  1  0  0  0
 40 67  1  0  0  0
 40 69  1  0  0  0
 41 63  1  0  0  0
M  CHG  3  11   1  37   1  40   1
M  END
> <s_m_entry_id>
103

> <s_m_entry_name>
biosynth_p1.0.sdf.96

> <s_m_Source_Path>
/Users/Sebastito/Downloads

> <s_m_Source_File>
biosynth_p1.0.sdf.gz

> <i_m_Source_File_Index>
96

> <chiral flag>
1

> <version>
0

> <i_m_ct_enhanced_stereo_status>
0

> <s_m_source_file>
ligprep_vs.maegz

> <i_m_source_file_index>
96

> <i_lp_mmshare_version>
37011

> <r_epik_Ionization_Penalty>
2.05908

> <r_epik_Ionization_Penalty_Charging>
0.155437

> <r_epik_Ionization_Penalty_Neutral>
1.90364

> <r_epik_State_Penalty>
2.19182

> <r_epik_Charging_Adjusted_Penalty>
2.34726

> <i_epik_Tot_Q>
3

> <i_epik_Tot_abs_Q>
3

> <s_epik_Chemistry_Notes>
This compound contains an acetal/aminal-like group ( X-CH(R)-Y where X, Y are N, S, or O) that may be acid/base labile, releasing an aldehyde.

> <i_f3d_flags>
0

> <s_lp_Force_Field>
OPLS_2005

> <r_lp_Energy>
70.1427

> <b_lp_Chiralities_Consistent>
1

> <s_lp_Variant>
ZINC60184552-8

$$$$
ZINC60184552
                    3D
 Structure written by MMmdl.
 72 74  0  0  1  0            999 V2000
   -2.8085    4.6171   -1.0788 C   0  0  0  0  0  0
   -2.3658    3.1448   -1.1797 C   0  0  1  0  0  0
   -0.8502    3.0811   -1.4773 C   0  0  0  0  0  0
   -0.3416    1.7533   -1.3784 O   0  0  0  0  0  0
   -0.5075    1.1483   -0.1324 C   0  0  1  0  0  0
   -0.0687    1.7891    0.6364 H   0  0  0  0  0  0
   -2.0095    0.9639    0.1412 C   0  0  1  0  0  0
   -2.1002    0.5214    1.1322 H   0  0  0  0  0  0
   -2.6741    2.3611    0.1230 C   0  0  2  0  0  0
   -2.2014    2.9307    0.9250 H   0  0  0  0  0  0
   -4.1138    2.3126    0.4171 N   0  0  0  0  0  0
   -4.4663    1.8342    1.7511 C   0  0  0  0  0  0
   -2.6020    0.0804   -0.7932 O   0  0  0  0  0  0
    0.1095   -0.0985   -0.0563 O   0  0  0  0  0  0
    1.5344   -0.0619   -0.0729 C   0  0  2  0  0  0
    1.9154    0.9619   -0.0861 H   0  0  0  0  0  0
    2.0467   -0.8040   -1.3311 C   0  0  1  0  0  0
    3.1336   -0.7123   -1.3532 H   0  0  0  0  0  0
    1.7022   -2.3080   -1.2968 C   0  0  0  0  0  0
    2.2384   -2.9793   -0.0140 C   0  0  1  0  0  0
    3.3258   -2.8897   -0.0157 H   0  0  0  0  0  0
    1.7000   -2.2844    1.2569 C   0  0  1  0  0  0
    2.1784   -2.7302    2.1319 H   0  0  0  0  0  0
    2.0591   -0.7801    1.1902 C   0  0  2  0  0  0
    3.1480   -0.7269    1.1463 H   0  0  0  0  0  0
    1.7453   -0.0833    2.3793 O   0  0  0  0  0  0
    0.2832   -2.4652    1.2734 O   0  0  0  0  0  0
   -0.2241   -3.0168    2.4475 C   0  0  2  0  0  0
    0.3243   -3.9373    2.6600 H   0  0  0  0  0  0
   -1.7174   -3.3523    2.2238 C   0  0  1  0  0  0
   -1.7946   -4.0484    1.3879 H   0  0  0  0  0  0
   -2.2546   -4.0161    3.5029 C   0  0  0  0  0  0
   -1.8107   -3.2514    4.7294 C   0  0  0  0  0  0
   -0.7904   -2.3752    4.6939 C   0  0  0  0  0  0
   -0.0598   -2.1585    3.5480 O   0  0  0  0  0  0
   -0.2814   -1.5882    5.8844 C   0  0  0  0  0  0
   -0.5856   -0.1564    5.7302 N   0  3  0  0  0  0
   -2.4928   -2.1452    1.8784 N   0  3  0  0  0  0
    1.9548   -4.4269   -0.0038 N   0  3  0  0  0  0
    1.5664   -0.1707   -2.5736 N   0  3  0  0  0  0
   -3.0378    2.5976   -2.2993 O   0  0  0  0  0  0
   -2.3292    5.1179   -0.2371 H   0  0  0  0  0  0
   -3.8869    4.7088   -0.9455 H   0  0  0  0  0  0
   -2.5459    5.1721   -1.9804 H   0  0  0  0  0  0
   -0.6334    3.4711   -2.4727 H   0  0  0  0  0  0
   -0.3014    3.7118   -0.7759 H   0  0  0  0  0  0
   -5.5439    1.8963    1.9037 H   0  0  0  0  0  0
   -3.9875    2.4361    2.5239 H   0  0  0  0  0  0
   -4.1776    0.7940    1.8963 H   0  0  0  0  0  0
   -3.5421    0.1522   -0.7129 H   0  0  0  0  0  0
    0.6218   -2.4441   -1.3676 H   0  0  0  0  0  0
    2.1292   -2.7999   -2.1720 H   0  0  0  0  0  0
    2.1473    0.7719    2.3418 H   0  0  0  0  0  0
   -3.3437   -4.0733    3.4794 H   0  0  0  0  0  0
   -1.8850   -5.0386    3.5883 H   0  0  0  0  0  0
   -2.3396   -3.4454    5.6514 H   0  0  0  0  0  0
   -0.7338   -1.9569    6.8058 H   0  0  0  0  0  0
    0.7972   -1.7211    5.9735 H   0  0  0  0  0  0
   -0.2344    0.3473    6.5326 H   0  0  0  0  0  0
   -2.4347   -1.4782    2.6340 H   0  0  0  0  0  0
    0.9563   -4.5790   -0.0112 H   0  0  0  0  0  0
    0.5575   -0.2153   -2.6100 H   0  0  0  0  0  0
   -2.7878    1.6902   -2.3856 H   0  0  0  0  0  0
    2.3544   -4.8471    0.8236 H   0  0  0  0  0  0
   -4.5128    3.2353    0.2712 H   0  0  0  0  0  0
   -1.5850   -0.0253    5.6660 H   0  0  0  0  0  0
    1.9527   -0.6500   -3.3747 H   0  0  0  0  0  0
   -3.4593   -2.3990    1.7279 H   0  0  0  0  0  0
    2.3633   -4.8569   -0.8219 H   0  0  0  0  0  0
    1.8543    0.7975   -2.5943 H   0  0  0  0  0  0
   -0.1415    0.1957    4.8943 H   0  0  0  0  0  0
   -2.1200   -1.7336    1.0344 H   0  0  0  0  0  0
  1  2  1  0  0  0
  1 42  1  0  0  0
  1 43  1  0  0  0
  1 44  1  0  0  0
  2  9  1  0  0  0
  2  3  1  0  0  0
  2 41  1  0  0  0
  3  4  1  0  0  0
  3 45  1  0  0  0
  3 46  1  0  0  0
  4  5  1  0  0  0
  5  6  1  0  0  0
  5  7  1  0  0  0
  5 14  1  0  0  0
  7  8  1  0  0  0
  7  9  1  0  0  0
  7 13  1  0  0  0
  9 10  1  0  0  0
  9 11  1  0  0  0
 11 12  1  0  0  0
 11 65  1  0  0  0
 12 47  1  0  0  0
 12 48  1  0  0  0
 12 49  1  0  0  0
 13 50  1  0  0  0
 14 15  1  0  0  0
 15 16  1  0  0  0
 15 24  1  0  0  0
 15 17  1  0  0  0
 17 18  1  0  0  0
 17 19  1  0  0  0
 17 40  1  0  0  0
 19 20  1  0  0  0
 19 51  1  0  0  0
 19 52  1  0  0  0
 20 21  1  0  0  0
 20 22  1  0  0  0
 20 39  1  0  0  0
 22 23  1  0  0  0
 22 24  1  0  0  0
 22 27  1  0  0  0
 24 25  1  0  0  0
 24 26  1  0  0  0
 26 53  1  0  0  0
 27 28  1  0  0  0
 28 29  1  0  0  0
 28 35  1  0  0  0
 28 30  1  0  0  0
 30 31  1  0  0  0
 30 32  1  0  0  0
 30 38  1  0  0  0
 32 33  1  0  0  0
 32 54  1  0  0  0
 32 55  1  0  0  0
 33 34  2  0  0  0
 33 56  1  0  0  0
 34 35  1  0  0  0
 34 36  1  0  0  0
 36 37  1  0  0  0
 36 57  1  0  0  0
 36 58  1  0  0  0
 37 59  1  0  0  0
 37 66  1  0  0  0
 37 71  1  0  0  0
 38 60  1  0  0  0
 38 68  1  0  0  0
 38 72  1  0  0  0
 39 61  1  0  0  0
 39 64  1  0  0  0
 39 69  1  0  0  0
 40 62  1  0  0  0
 40 67  1  0  0  0
 40 70  1  0  0  0
 41 63  1  0  0  0
M  CHG  4  37   1  38   1  39   1  40   1
M  END
> <s_m_entry_id>
103

> <s_m_entry_name>
biosynth_p1.0.sdf.96

> <s_m_Source_Path>
/Users/Sebastito/Downloads

> <s_m_Source_File>
biosynth_p1.0.sdf.gz

> <i_m_Source_File_Index>
96

> <chiral flag>
1

> <version>
0

> <i_m_ct_enhanced_stereo_status>
0

> <s_m_source_file>
ligprep_vs.maegz

> <i_m_source_file_index>
96

> <i_lp_mmshare_version>
37011

> <r_epik_Ionization_Penalty>
2.31594

> <r_epik_Ionization_Penalty_Charging>
0.747414

> <r_epik_Ionization_Penalty_Neutral>
1.56853

> <r_epik_State_Penalty>
2.30076

> <r_epik_Charging_Adjusted_Penalty>
3.04818

> <i_epik_Tot_Q>
4

> <i_epik_Tot_abs_Q>
4

> <s_epik_Chemistry_Notes>
This compound contains an acetal/aminal-like group ( X-CH(R)-Y where X, Y are N, S, or O) that may be acid/base labile, releasing an aldehyde.

> <i_f3d_flags>
0

> <s_lp_Force_Field>
OPLS_2005

> <r_lp_Energy>
90.7117

> <b_lp_Chiralities_Consistent>
1

> <s_lp_Variant>
ZINC60184552-9

$$$$
ZINC60184552
                    3D
 Structure written by MMmdl.
 71 73  0  0  1  0            999 V2000
   -2.2648    4.5557    1.5561 C   0  0  0  0  0  0
   -2.0579    3.2155    0.8247 C   0  0  1  0  0  0
   -0.6240    3.1569    0.2476 C   0  0  0  0  0  0
   -0.3011    1.8637   -0.2601 O   0  0  0  0  0  0
   -0.3789    0.8322    0.6772 C   0  0  1  0  0  0
    0.2531    1.0785    1.5333 H   0  0  0  0  0  0
   -1.8424    0.6742    1.1208 C   0  0  1  0  0  0
   -1.8676   -0.1282    1.8547 H   0  0  0  0  0  0
   -2.2891    2.0064    1.7682 C   0  0  2  0  0  0
   -1.6283    2.1674    2.6207 H   0  0  0  0  0  0
   -3.6628    1.9593    2.2894 N   0  0  0  0  0  0
   -3.8994    0.9763    3.3438 C   0  0  0  0  0  0
   -2.6736    0.3020    0.0371 O   0  0  0  0  0  0
    0.0520   -0.3875    0.1677 O   0  0  0  0  0  0
    1.4344   -0.4442   -0.1672 C   0  0  2  0  0  0
    1.8855    0.5495   -0.2103 H   0  0  0  0  0  0
    1.5356   -1.0932   -1.5653 C   0  0  1  0  0  0
    2.5813   -1.0709   -1.8749 H   0  0  0  0  0  0
    1.0741   -2.5676   -1.5540 C   0  0  0  0  0  0
    1.8238   -3.4003   -0.4883 C   0  0  1  0  0  0
    2.8822   -3.4165   -0.7519 H   0  0  0  0  0  0
    1.6801   -2.7812    0.9214 C   0  0  1  0  0  0
    2.2820   -3.3640    1.6208 H   0  0  0  0  0  0
    2.1943   -1.3200    0.8526 C   0  0  2  0  0  0
    3.2203   -1.3836    0.4871 H   0  0  0  0  0  0
    2.3757   -0.6972    2.1079 O   0  0  0  0  0  0
    0.2907   -2.8872    1.2310 O   0  0  0  0  0  0
   -0.0661   -2.8692    2.5776 C   0  0  2  0  0  0
    0.6567   -3.4608    3.1432 H   0  0  0  0  0  0
   -1.4601   -3.5276    2.7022 C   0  0  1  0  0  0
   -1.3639   -4.5557    2.3516 H   0  0  0  0  0  0
   -1.8511   -3.5633    4.1891 C   0  0  0  0  0  0
   -1.5556   -2.2390    4.8533 C   0  0  0  0  0  0
   -0.7238   -1.3360    4.3057 C   0  0  0  0  0  0
   -0.0657   -1.5766    3.1227 O   0  0  0  0  0  0
   -0.4110    0.0230    4.8930 C   0  0  0  0  0  0
    0.9654    0.0464    5.4130 N   0  3  0  0  0  0
   -2.4751   -2.8524    1.8742 N   0  0  0  0  0  0
    1.3784   -4.8070   -0.5010 N   0  3  0  0  0  0
    0.7914   -0.3066   -2.5674 N   0  3  0  0  0  0
   -2.9524    3.2115   -0.2731 O   0  0  0  0  0  0
   -1.6056    4.6399    2.4205 H   0  0  0  0  0  0
   -3.2890    4.6692    1.9131 H   0  0  0  0  0  0
   -2.0545    5.4019    0.9007 H   0  0  0  0  0  0
   -0.4945    3.8929   -0.5469 H   0  0  0  0  0  0
    0.1029    3.4116    1.0207 H   0  0  0  0  0  0
   -4.9093    1.0809    3.7402 H   0  0  0  0  0  0
   -3.2033    1.1114    4.1720 H   0  0  0  0  0  0
   -3.8010   -0.0437    2.9733 H   0  0  0  0  0  0
   -2.6919    1.0171   -0.5818 H   0  0  0  0  0  0
   -0.0012   -2.6158   -1.3726 H   0  0  0  0  0  0
    1.2346   -3.0063   -2.5398 H   0  0  0  0  0  0
    2.8610    0.1037    1.9773 H   0  0  0  0  0  0
   -2.9089   -3.8035    4.3032 H   0  0  0  0  0  0
   -1.2916   -4.3388    4.7134 H   0  0  0  0  0  0
   -2.0440   -2.0391    5.7960 H   0  0  0  0  0  0
   -0.5183    0.7868    4.1238 H   0  0  0  0  0  0
   -1.1096    0.2618    5.6954 H   0  0  0  0  0  0
    1.1676    0.9598    5.7942 H   0  0  0  0  0  0
   -3.3838   -3.2996    1.9908 H   0  0  0  0  0  0
    0.3981   -4.8514   -0.2597 H   0  0  0  0  0  0
   -0.1884   -0.2886   -2.3207 H   0  0  0  0  0  0
   -3.8329    3.3044    0.0585 H   0  0  0  0  0  0
    1.9123   -5.3402    0.1706 H   0  0  0  0  0  0
   -4.3048    1.7847    1.5222 H   0  0  0  0  0  0
    1.6116   -0.1572    4.6641 H   0  0  0  0  0  0
    0.8997   -0.7246   -3.4805 H   0  0  0  0  0  0
   -2.5871   -1.8826    2.1655 H   0  0  0  0  0  0
    1.5142   -5.1992   -1.4221 H   0  0  0  0  0  0
    1.1446    0.6398   -2.5883 H   0  0  0  0  0  0
    1.0631   -0.6489    6.1391 H   0  0  0  0  0  0
  1  2  1  0  0  0
  1 42  1  0  0  0
  1 43  1  0  0  0
  1 44  1  0  0  0
  2  9  1  0  0  0
  2  3  1  0  0  0
  2 41  1  0  0  0
  3  4  1  0  0  0
  3 45  1  0  0  0
  3 46  1  0  0  0
  4  5  1  0  0  0
  5  6  1  0  0  0
  5  7  1  0  0  0
  5 14  1  0  0  0
  7  8  1  0  0  0
  7  9  1  0  0  0
  7 13  1  0  0  0
  9 10  1  0  0  0
  9 11  1  0  0  0
 11 12  1  0  0  0
 11 65  1  0  0  0
 12 47  1  0  0  0
 12 48  1  0  0  0
 12 49  1  0  0  0
 13 50  1  0  0  0
 14 15  1  0  0  0
 15 16  1  0  0  0
 15 24  1  0  0  0
 15 17  1  0  0  0
 17 18  1  0  0  0
 17 19  1  0  0  0
 17 40  1  0  0  0
 19 20  1  0  0  0
 19 51  1  0  0  0
 19 52  1  0  0  0
 20 21  1  0  0  0
 20 22  1  0  0  0
 20 39  1  0  0  0
 22 23  1  0  0  0
 22 24  1  0  0  0
 22 27  1  0  0  0
 24 25  1  0  0  0
 24 26  1  0  0  0
 26 53  1  0  0  0
 27 28  1  0  0  0
 28 29  1  0  0  0
 28 35  1  0  0  0
 28 30  1  0  0  0
 30 31  1  0  0  0
 30 32  1  0  0  0
 30 38  1  0  0  0
 32 33  1  0  0  0
 32 54  1  0  0  0
 32 55  1  0  0  0
 33 34  2  0  0  0
 33 56  1  0  0  0
 34 35  1  0  0  0
 34 36  1  0  0  0
 36 37  1  0  0  0
 36 57  1  0  0  0
 36 58  1  0  0  0
 37 59  1  0  0  0
 37 66  1  0  0  0
 37 71  1  0  0  0
 38 60  1  0  0  0
 38 68  1  0  0  0
 39 61  1  0  0  0
 39 64  1  0  0  0
 39 69  1  0  0  0
 40 62  1  0  0  0
 40 67  1  0  0  0
 40 70  1  0  0  0
 41 63  1  0  0  0
M  CHG  3  37   1  39   1  40   1
M  END
> <s_m_entry_id>
103

> <s_m_entry_name>
biosynth_p1.0.sdf.96

> <s_m_Source_Path>
/Users/Sebastito/Downloads

> <s_m_Source_File>
biosynth_p1.0.sdf.gz

> <i_m_Source_File_Index>
96

> <chiral flag>
1

> <version>
0

> <i_m_ct_enhanced_stereo_status>
0

> <s_m_source_file>
ligprep_vs.maegz

> <i_m_source_file_index>
96

> <i_lp_mmshare_version>
37011

> <r_epik_Ionization_Penalty>
2.23666

> <r_epik_Ionization_Penalty_Charging>
0.231425

> <r_epik_Ionization_Penalty_Neutral>
2.00524

> <r_epik_State_Penalty>
2.4054

> <r_epik_Charging_Adjusted_Penalty>
2.63682

> <i_epik_Tot_Q>
3

> <i_epik_Tot_abs_Q>
3

> <s_epik_Chemistry_Notes>
This compound contains an acetal/aminal-like group ( X-CH(R)-Y where X, Y are N, S, or O) that may be acid/base labile, releasing an aldehyde.

> <i_f3d_flags>
0

> <s_lp_Force_Field>
OPLS_2005

> <r_lp_Energy>
76.4155

> <b_lp_Chiralities_Consistent>
1

> <s_lp_Variant>
ZINC60184552-10

$$$$
ZINC60184552
                    3D
 Structure written by MMmdl.
 71 73  0  0  1  0            999 V2000
   -2.8079    4.6472    0.7978 C   0  0  0  0  0  0
   -2.3918    3.1806    1.0198 C   0  0  1  0  0  0
   -2.2942    2.4580   -0.3452 C   0  0  0  0  0  0
   -1.7040    1.1642   -0.2294 O   0  0  0  0  0  0
   -0.4174    1.1582    0.3040 C   0  0  1  0  0  0
    0.1723    1.8406   -0.3124 H   0  0  0  0  0  0
   -0.4819    1.6375    1.7662 C   0  0  1  0  0  0
    0.5327    1.6233    2.1628 H   0  0  0  0  0  0
   -1.0392    3.0796    1.7766 C   0  0  2  0  0  0
   -0.3284    3.7041    1.2319 H   0  0  0  0  0  0
   -1.1278    3.6366    3.1494 N   0  3  0  0  0  0
    0.1654    3.9508    3.7894 C   0  0  0  0  0  0
   -1.2762    0.7754    2.5580 O   0  0  0  0  0  0
    0.1502   -0.1150    0.2665 O   0  0  0  0  0  0
    1.5468   -0.1841   -0.0242 C   0  0  2  0  0  0
    2.0235    0.7980   -0.0072 H   0  0  0  0  0  0
    1.7147   -0.8240   -1.4230 C   0  0  1  0  0  0
    2.7776   -0.8215   -1.6692 H   0  0  0  0  0  0
    1.2274   -2.2901   -1.4471 C   0  0  0  0  0  0
    1.9281   -3.1400   -0.3637 C   0  0  1  0  0  0
    2.9969   -3.0971   -0.5774 H   0  0  0  0  0  0
    1.7271   -2.5381    1.0443 C   0  0  1  0  0  0
    2.2986   -3.1280    1.7639 H   0  0  0  0  0  0
    2.2510   -1.0824    1.0166 C   0  0  2  0  0  0
    3.2963   -1.1449    0.7103 H   0  0  0  0  0  0
    2.3487   -0.4799    2.2887 O   0  0  0  0  0  0
    0.3241   -2.5903    1.3004 O   0  0  0  0  0  0
   -0.0446   -2.9345    2.5986 C   0  0  2  0  0  0
    0.5315   -3.8073    2.9133 H   0  0  0  0  0  0
   -1.5455   -3.2990    2.5755 C   0  0  1  0  0  0
   -1.6902   -4.1295    1.8837 H   0  0  0  0  0  0
   -1.9588   -3.7254    3.9926 C   0  0  0  0  0  0
   -1.4409   -2.7370    5.0108 C   0  0  0  0  0  0
   -0.4336   -1.8901    4.7352 C   0  0  0  0  0  0
    0.2059   -1.8990    3.5142 O   0  0  0  0  0  0
    0.1034   -0.8640    5.7176 C   0  0  0  0  0  0
    0.8022    0.2277    5.0670 N   0  0  0  0  0  0
   -2.3540   -2.1618    2.0967 N   0  3  0  0  0  0
    1.5411   -4.5579   -0.4163 N   0  0  0  0  0  0
    1.0548   -0.0246   -2.4720 N   0  3  0  0  0  0
   -3.4508    2.5746    1.7411 O   0  0  0  0  0  0
   -2.0509    5.1929    0.2333 H   0  0  0  0  0  0
   -2.9573    5.1746    1.7406 H   0  0  0  0  0  0
   -3.7419    4.7136    0.2377 H   0  0  0  0  0  0
   -3.2795    2.3584   -0.8031 H   0  0  0  0  0  0
   -1.6952    3.0478   -1.0412 H   0  0  0  0  0  0
   -0.0091    4.4092    4.7629 H   0  0  0  0  0  0
    0.7399    4.6522    3.1835 H   0  0  0  0  0  0
    0.7619    3.0525    3.9467 H   0  0  0  0  0  0
   -2.1601    0.7988    2.2218 H   0  0  0  0  0  0
    0.1456   -2.3279   -1.3101 H   0  0  0  0  0  0
    1.4240   -2.7213   -2.4298 H   0  0  0  0  0  0
    2.8732    0.3026    2.2138 H   0  0  0  0  0  0
   -3.0440   -3.8003    4.0706 H   0  0  0  0  0  0
   -1.5530   -4.7087    4.2329 H   0  0  0  0  0  0
   -1.9092   -2.7356    5.9845 H   0  0  0  0  0  0
   -0.7211   -0.4565    6.3034 H   0  0  0  0  0  0
    0.7833   -1.3592    6.4111 H   0  0  0  0  0  0
    1.1669    0.8527    5.7718 H   0  0  0  0  0  0
   -2.2111   -1.3737    2.7121 H   0  0  0  0  0  0
    0.5484   -4.6661   -0.2137 H   0  0  0  0  0  0
    0.0606    0.0092   -2.2960 H   0  0  0  0  0  0
   -3.6526    3.1064    2.4960 H   0  0  0  0  0  0
    1.6948   -4.9370   -1.3497 H   0  0  0  0  0  0
   -1.6561    4.4961    3.1006 H   0  0  0  0  0  0
    1.6056   -0.1434    4.5789 H   0  0  0  0  0  0
    1.2201   -0.4507   -3.3730 H   0  0  0  0  0  0
   -3.3310   -2.4171    2.0904 H   0  0  0  0  0  0
    1.4302    0.9130   -2.4730 H   0  0  0  0  0  0
   -1.6320    2.9828    3.7317 H   0  0  0  0  0  0
   -2.0600   -1.9145    1.1628 H   0  0  0  0  0  0
  1  2  1  0  0  0
  1 42  1  0  0  0
  1 43  1  0  0  0
  1 44  1  0  0  0
  2  9  1  0  0  0
  2  3  1  0  0  0
  2 41  1  0  0  0
  3  4  1  0  0  0
  3 45  1  0  0  0
  3 46  1  0  0  0
  4  5  1  0  0  0
  5  6  1  0  0  0
  5  7  1  0  0  0
  5 14  1  0  0  0
  7  8  1  0  0  0
  7  9  1  0  0  0
  7 13  1  0  0  0
  9 10  1  0  0  0
  9 11  1  0  0  0
 11 12  1  0  0  0
 11 65  1  0  0  0
 11 70  1  0  0  0
 12 47  1  0  0  0
 12 48  1  0  0  0
 12 49  1  0  0  0
 13 50  1  0  0  0
 14 15  1  0  0  0
 15 16  1  0  0  0
 15 24  1  0  0  0
 15 17  1  0  0  0
 17 18  1  0  0  0
 17 19  1  0  0  0
 17 40  1  0  0  0
 19 20  1  0  0  0
 19 51  1  0  0  0
 19 52  1  0  0  0
 20 21  1  0  0  0
 20 22  1  0  0  0
 20 39  1  0  0  0
 22 23  1  0  0  0
 22 24  1  0  0  0
 22 27  1  0  0  0
 24 25  1  0  0  0
 24 26  1  0  0  0
 26 53  1  0  0  0
 27 28  1  0  0  0
 28 29  1  0  0  0
 28 35  1  0  0  0
 28 30  1  0  0  0
 30 31  1  0  0  0
 30 32  1  0  0  0
 30 38  1  0  0  0
 32 33  1  0  0  0
 32 54  1  0  0  0
 32 55  1  0  0  0
 33 34  2  0  0  0
 33 56  1  0  0  0
 34 35  1  0  0  0
 34 36  1  0  0  0
 36 37  1  0  0  0
 36 57  1  0  0  0
 36 58  1  0  0  0
 37 59  1  0  0  0
 37 66  1  0  0  0
 38 60  1  0  0  0
 38 68  1  0  0  0
 38 71  1  0  0  0
 39 61  1  0  0  0
 39 64  1  0  0  0
 40 62  1  0  0  0
 40 67  1  0  0  0
 40 69  1  0  0  0
 41 63  1  0  0  0
M  CHG  3  11   1  38   1  40   1
M  END
> <s_m_entry_id>
103

> <s_m_entry_name>
biosynth_p1.0.sdf.96

> <s_m_Source_Path>
/Users/Sebastito/Downloads

> <s_m_Source_File>
biosynth_p1.0.sdf.gz

> <i_m_Source_File_Index>
96

> <chiral flag>
1

> <version>
0

> <i_m_ct_enhanced_stereo_status>
0

> <s_m_source_file>
ligprep_vs.maegz

> <i_m_source_file_index>
96

> <i_lp_mmshare_version>
37011

> <r_epik_Ionization_Penalty>
2.18991

> <r_epik_Ionization_Penalty_Charging>
0.179312

> <r_epik_Ionization_Penalty_Neutral>
2.0106

> <r_epik_State_Penalty>
2.42851

> <r_epik_Charging_Adjusted_Penalty>
2.60782

> <i_epik_Tot_Q>
3

> <i_epik_Tot_abs_Q>
3

> <s_epik_Chemistry_Notes>
This compound contains an acetal/aminal-like group ( X-CH(R)-Y where X, Y are N, S, or O) that may be acid/base labile, releasing an aldehyde.

> <i_f3d_flags>
0

> <s_lp_Force_Field>
OPLS_2005

> <r_lp_Energy>
66.7873

> <b_lp_Chiralities_Consistent>
1

> <s_lp_Variant>
ZINC60184552-11

$$$$
ZINC60184552
                    3D
 Structure written by MMmdl.
 71 73  0  0  1  0            999 V2000
   -3.0695    4.4865    0.7911 C   0  0  0  0  0  0
   -2.5289    3.0792    1.1086 C   0  0  1  0  0  0
   -2.5806    2.2062   -0.1677 C   0  0  0  0  0  0
   -1.8956    0.9674    0.0034 O   0  0  0  0  0  0
   -0.5461    1.0928    0.3247 C   0  0  1  0  0  0
   -0.0939    1.7225   -0.4452 H   0  0  0  0  0  0
   -0.4264    1.7363    1.7213 C   0  0  1  0  0  0
    0.6336    1.8299    1.9545 H   0  0  0  0  0  0
   -1.0784    3.1374    1.6610 C   0  0  2  0  0  0
   -0.4969    3.7309    0.9527 H   0  0  0  0  0  0
   -1.0106    3.8472    2.9627 N   0  3  0  0  0  0
    0.3397    4.2675    3.3874 C   0  0  0  0  0  0
   -1.0233    0.9297    2.7195 O   0  0  0  0  0  0
    0.0973   -0.1422    0.3229 O   0  0  0  0  0  0
    1.5001   -0.1197    0.0590 C   0  0  2  0  0  0
    1.9164    0.8883    0.1165 H   0  0  0  0  0  0
    1.7510   -0.7132   -1.3472 C   0  0  1  0  0  0
    2.8312   -0.7029   -1.4991 H   0  0  0  0  0  0
    1.3147   -2.1925   -1.4285 C   0  0  0  0  0  0
    2.0014   -3.0498   -0.3400 C   0  0  1  0  0  0
    3.0772   -3.0263   -0.5202 H   0  0  0  0  0  0
    1.7345   -2.4907    1.0762 C   0  0  1  0  0  0
    2.2932   -3.0820    1.8045 H   0  0  0  0  0  0
    2.2117   -1.0156    1.0956 C   0  0  2  0  0  0
    3.2664   -1.0335    0.8166 H   0  0  0  0  0  0
    2.2554   -0.4367    2.3801 O   0  0  0  0  0  0
    0.3259   -2.6046    1.2774 O   0  0  0  0  0  0
   -0.0983   -2.9520    2.5574 C   0  0  2  0  0  0
    0.4180   -3.8656    2.8593 H   0  0  0  0  0  0
   -1.6200   -3.2095    2.4808 C   0  0  1  0  0  0
   -1.8030   -4.0033    1.7556 H   0  0  0  0  0  0
   -2.1024   -3.6528    3.8708 C   0  0  0  0  0  0
   -1.5540   -2.7299    4.9334 C   0  0  0  0  0  0
   -0.4904   -1.9383    4.7087 C   0  0  0  0  0  0
    0.1884   -1.9603    3.5091 O   0  0  0  0  0  0
    0.0821   -0.9727    5.7302 C   0  0  0  0  0  0
    1.5106   -0.7813    5.5710 N   0  0  0  0  0  0
   -2.3315   -1.9991    2.0237 N   0  3  0  0  0  0
    1.6065   -4.4667   -0.4440 N   0  3  0  0  0  0
    1.1671    0.1076   -2.4190 N   0  0  0  0  0  0
   -3.4293    2.5103    2.0439 O   0  0  0  0  0  0
   -2.4381    4.9982    0.0638 H   0  0  0  0  0  0
   -3.1183    5.1139    1.6815 H   0  0  0  0  0  0
   -4.0755    4.4395    0.3716 H   0  0  0  0  0  0
   -3.6123    2.0035   -0.4581 H   0  0  0  0  0  0
   -2.1278    2.7371   -1.0069 H   0  0  0  0  0  0
    0.2698    4.8498    4.3063 H   0  0  0  0  0  0
    0.8123    4.8905    2.6275 H   0  0  0  0  0  0
    0.9800    3.4084    3.5861 H   0  0  0  0  0  0
   -1.9469    0.8616    2.5282 H   0  0  0  0  0  0
    0.2297   -2.2654   -1.3372 H   0  0  0  0  0  0
    1.5633   -2.5893   -2.4138 H   0  0  0  0  0  0
    2.7262    0.3811    2.3291 H   0  0  0  0  0  0
   -3.1920   -3.6583    3.9153 H   0  0  0  0  0  0
   -1.7684   -4.6674    4.0911 H   0  0  0  0  0  0
   -2.0512   -2.7252    5.8927 H   0  0  0  0  0  0
   -0.4182   -0.0099    5.6243 H   0  0  0  0  0  0
   -0.1191   -1.3372    6.7381 H   0  0  0  0  0  0
    1.8407   -0.1146    6.2544 H   0  0  0  0  0  0
   -2.1624   -1.2498    2.6797 H   0  0  0  0  0  0
    0.6121   -4.5528   -0.2903 H   0  0  0  0  0  0
    0.1520    0.1399   -2.3335 H   0  0  0  0  0  0
   -3.5558    3.1178    2.7568 H   0  0  0  0  0  0
    2.1033   -5.0093    0.2483 H   0  0  0  0  0  0
   -1.5762    4.6806    2.8882 H   0  0  0  0  0  0
    1.9906   -1.6478    5.7693 H   0  0  0  0  0  0
    1.5009    1.0687   -2.3590 H   0  0  0  0  0  0
   -3.3228   -2.1852    1.9693 H   0  0  0  0  0  0
    1.8342   -4.8124   -1.3656 H   0  0  0  0  0  0
   -1.4083    3.2522    3.6757 H   0  0  0  0  0  0
   -1.9856   -1.7291    1.1138 H   0  0  0  0  0  0
  1  2  1  0  0  0
  1 42  1  0  0  0
  1 43  1  0  0  0
  1 44  1  0  0  0
  2  9  1  0  0  0
  2  3  1  0  0  0
  2 41  1  0  0  0
  3  4  1  0  0  0
  3 45  1  0  0  0
  3 46  1  0  0  0
  4  5  1  0  0  0
  5  6  1  0  0  0
  5  7  1  0  0  0
  5 14  1  0  0  0
  7  8  1  0  0  0
  7  9  1  0  0  0
  7 13  1  0  0  0
  9 10  1  0  0  0
  9 11  1  0  0  0
 11 12  1  0  0  0
 11 65  1  0  0  0
 11 70  1  0  0  0
 12 47  1  0  0  0
 12 48  1  0  0  0
 12 49  1  0  0  0
 13 50  1  0  0  0
 14 15  1  0  0  0
 15 16  1  0  0  0
 15 24  1  0  0  0
 15 17  1  0  0  0
 17 18  1  0  0  0
 17 19  1  0  0  0
 17 40  1  0  0  0
 19 20  1  0  0  0
 19 51  1  0  0  0
 19 52  1  0  0  0
 20 21  1  0  0  0
 20 22  1  0  0  0
 20 39  1  0  0  0
 22 23  1  0  0  0
 22 24  1  0  0  0
 22 27  1  0  0  0
 24 25  1  0  0  0
 24 26  1  0  0  0
 26 53  1  0  0  0
 27 28  1  0  0  0
 28 29  1  0  0  0
 28 35  1  0  0  0
 28 30  1  0  0  0
 30 31  1  0  0  0
 30 32  1  0  0  0
 30 38  1  0  0  0
 32 33  1  0  0  0
 32 54  1  0  0  0
 32 55  1  0  0  0
 33 34  2  0  0  0
 33 56  1  0  0  0
 34 35  1  0  0  0
 34 36  1  0  0  0
 36 37  1  0  0  0
 36 57  1  0  0  0
 36 58  1  0  0  0
 37 59  1  0  0  0
 37 66  1  0  0  0
 38 60  1  0  0  0
 38 68  1  0  0  0
 38 71  1  0  0  0
 39 61  1  0  0  0
 39 64  1  0  0  0
 39 69  1  0  0  0
 40 62  1  0  0  0
 40 67  1  0  0  0
 41 63  1  0  0  0
M  CHG  3  11   1  38   1  39   1
M  END
> <s_m_entry_id>
103

> <s_m_entry_name>
biosynth_p1.0.sdf.96

> <s_m_Source_Path>
/Users/Sebastito/Downloads

> <s_m_Source_File>
biosynth_p1.0.sdf.gz

> <i_m_Source_File_Index>
96

> <chiral flag>
1

> <version>
0

> <i_m_ct_enhanced_stereo_status>
0

> <s_m_source_file>
ligprep_vs.maegz

> <i_m_source_file_index>
96

> <i_lp_mmshare_version>
37011

> <r_epik_Ionization_Penalty>
2.2111

> <r_epik_Ionization_Penalty_Charging>
0.195249

> <r_epik_Ionization_Penalty_Neutral>
2.01585

> <r_epik_State_Penalty>
2.46226

> <r_epik_Charging_Adjusted_Penalty>
2.65751

> <i_epik_Tot_Q>
3

> <i_epik_Tot_abs_Q>
3

> <s_epik_Chemistry_Notes>
This compound contains an acetal/aminal-like group ( X-CH(R)-Y where X, Y are N, S, or O) that may be acid/base labile, releasing an aldehyde.

> <i_f3d_flags>
0

> <s_lp_Force_Field>
OPLS_2005

> <r_lp_Energy>
67.335

> <b_lp_Chiralities_Consistent>
1

> <s_lp_Variant>
ZINC60184552-12

$$$$
ZINC60184554
                    3D
 Structure written by MMmdl.
 73 75  0  0  1  0            999 V2000
   -3.4406    3.4568    2.1845 C   0  0  0  0  0  0
   -2.8037    2.2070    1.5457 C   0  0  2  0  0  0
   -1.4031    1.9326    2.1339 C   0  0  0  0  0  0
   -0.7785    0.8271    1.4882 O   0  0  0  0  0  0
   -0.5891    0.9595    0.1120 C   0  0  2  0  0  0
    0.0061    1.8502   -0.0991 H   0  0  0  0  0  0
   -1.9760    1.0502   -0.5603 C   0  0  1  0  0  0
   -2.5207    0.1300   -0.3448 H   0  0  0  0  0  0
   -2.7455    2.2736   -0.0026 C   0  0  2  0  0  0
   -3.7642    2.2306   -0.3939 H   0  0  0  0  0  0
   -2.1276    3.5420   -0.4734 N   0  3  0  0  0  0
   -3.0715    4.5258   -1.0414 C   0  0  0  0  0  0
   -1.8675    1.1818   -1.9654 O   0  0  0  0  0  0
    0.0302   -0.1851   -0.3902 O   0  0  0  0  0  0
    1.4592   -0.1902   -0.3693 C   0  0  2  0  0  0
    1.8625    0.8121   -0.5249 H   0  0  0  0  0  0
    1.9063   -1.0725   -1.5578 C   0  0  1  0  0  0
    2.9945   -1.0287   -1.6238 H   0  0  0  0  0  0
    1.5016   -2.5501   -1.3592 C   0  0  0  0  0  0
    2.0571   -3.1148   -0.0335 C   0  0  1  0  0  0
    3.1464   -3.0868   -0.0888 H   0  0  0  0  0  0
    1.6188   -2.2645    1.1812 C   0  0  1  0  0  0
    2.1296   -2.6380    2.0717 H   0  0  0  0  0  0
    2.0356   -0.7972    0.9330 C   0  0  2  0  0  0
    3.1189   -0.8113    0.8028 H   0  0  0  0  0  0
    1.8838    0.0299    2.0664 O   0  0  0  0  0  0
    0.1991   -2.3666    1.2958 O   0  0  0  0  0  0
   -0.2551   -2.7426    2.5582 C   0  0  2  0  0  0
    0.2702   -3.6533    2.8553 H   0  0  0  0  0  0
   -1.7699   -3.0377    2.4671 C   0  0  1  0  0  0
   -1.9258   -3.8261    1.7300 H   0  0  0  0  0  0
   -2.2474   -3.5180    3.8483 C   0  0  0  0  0  0
   -1.6819   -2.6468    4.9475 C   0  0  0  0  0  0
   -0.6418   -1.8188    4.7409 C   0  0  0  0  0  0
    0.0075   -1.7608    3.5289 O   0  0  0  0  0  0
    0.0029   -0.9571    5.8080 C   0  0  0  0  0  0
   -0.5748    0.3962    5.8069 N   0  3  0  0  0  0
   -2.5191   -1.8483    2.0211 N   0  3  0  0  0  0
    1.7026   -4.5363    0.1410 N   0  3  0  0  0  0
    1.4034   -0.5429   -2.8404 N   0  3  0  0  0  0
   -3.6492    1.1425    1.9398 O   0  0  0  0  0  0
   -2.8415    4.3513    2.0126 H   0  0  0  0  0  0
   -3.5369    3.3448    3.2653 H   0  0  0  0  0  0
   -4.4387    3.6441    1.7860 H   0  0  0  0  0  0
   -0.7632    2.8097    2.0233 H   0  0  0  0  0  0
   -1.4649    1.7280    3.2033 H   0  0  0  0  0  0
   -2.5321    5.4213   -1.3495 H   0  0  0  0  0  0
   -3.8268    4.8194   -0.3127 H   0  0  0  0  0  0
   -3.5749    4.1160   -1.9176 H   0  0  0  0  0  0
   -2.7355    1.1598   -2.3413 H   0  0  0  0  0  0
    0.4148   -2.6455   -1.3786 H   0  0  0  0  0  0
    1.8750   -3.1454   -2.1940 H   0  0  0  0  0  0
    0.9608    0.1256    2.2453 H   0  0  0  0  0  0
   -3.3369   -3.5182    3.9016 H   0  0  0  0  0  0
   -1.9216   -4.5429    4.0292 H   0  0  0  0  0  0
   -2.1369   -2.7259    5.9245 H   0  0  0  0  0  0
   -0.1366   -1.4101    6.7901 H   0  0  0  0  0  0
    1.0767   -0.8911    5.6296 H   0  0  0  0  0  0
   -0.1326    0.9478    6.5289 H   0  0  0  0  0  0
   -2.3888   -1.0973    2.6829 H   0  0  0  0  0  0
    0.6992   -4.6369    0.1949 H   0  0  0  0  0  0
    0.3931   -0.5448   -2.8379 H   0  0  0  0  0  0
   -3.8357    1.2321    2.8626 H   0  0  0  0  0  0
    2.1228   -4.8906    0.9889 H   0  0  0  0  0  0
   -1.6260    3.9695    0.2918 H   0  0  0  0  0  0
   -1.5660    0.3407    5.9917 H   0  0  0  0  0  0
    1.7371   -1.1192   -3.6004 H   0  0  0  0  0  0
   -3.5021   -2.0737    1.9586 H   0  0  0  0  0  0
    2.0485   -5.0686   -0.6451 H   0  0  0  0  0  0
   -1.4669    3.3109   -1.2019 H   0  0  0  0  0  0
    1.7353    0.4022   -2.9720 H   0  0  0  0  0  0
   -0.4177    0.8328    4.9106 H   0  0  0  0  0  0
   -2.1825   -1.5601    1.1138 H   0  0  0  0  0  0
  1  2  1  0  0  0
  1 42  1  0  0  0
  1 43  1  0  0  0
  1 44  1  0  0  0
  2  9  1  0  0  0
  2  3  1  0  0  0
  2 41  1  0  0  0
  3  4  1  0  0  0
  3 45  1  0  0  0
  3 46  1  0  0  0
  4  5  1  0  0  0
  5  6  1  0  0  0
  5  7  1  0  0  0
  5 14  1  0  0  0
  7  8  1  0  0  0
  7  9  1  0  0  0
  7 13  1  0  0  0
  9 10  1  0  0  0
  9 11  1  0  0  0
 11 12  1  0  0  0
 11 65  1  0  0  0
 11 70  1  0  0  0
 12 47  1  0  0  0
 12 48  1  0  0  0
 12 49  1  0  0  0
 13 50  1  0  0  0
 14 15  1  0  0  0
 15 16  1  0  0  0
 15 24  1  0  0  0
 15 17  1  0  0  0
 17 18  1  0  0  0
 17 19  1  0  0  0
 17 40  1  0  0  0
 19 20  1  0  0  0
 19 51  1  0  0  0
 19 52  1  0  0  0
 20 21  1  0  0  0
 20 22  1  0  0  0
 20 39  1  0  0  0
 22 23  1  0  0  0
 22 24  1  0  0  0
 22 27  1  0  0  0
 24 25  1  0  0  0
 24 26  1  0  0  0
 26 53  1  0  0  0
 27 28  1  0  0  0
 28 29  1  0  0  0
 28 35  1  0  0  0
 28 30  1  0  0  0
 30 31  1  0  0  0
 30 32  1  0  0  0
 30 38  1  0  0  0
 32 33  1  0  0  0
 32 54  1  0  0  0
 32 55  1  0  0  0
 33 34  2  0  0  0
 33 56  1  0  0  0
 34 35  1  0  0  0
 34 36  1  0  0  0
 36 37  1  0  0  0
 36 57  1  0  0  0
 36 58  1  0  0  0
 37 59  1  0  0  0
 37 66  1  0  0  0
 37 72  1  0  0  0
 38 60  1  0  0  0
 38 68  1  0  0  0
 38 73  1  0  0  0
 39 61  1  0  0  0
 39 64  1  0  0  0
 39 69  1  0  0  0
 40 62  1  0  0  0
 40 67  1  0  0  0
 40 71  1  0  0  0
 41 63  1  0  0  0
M  CHG  5  11   1  37   1  38   1  39   1  40   1
M  END
> <s_m_entry_id>
104

> <s_m_entry_name>
biosynth_p1.0.sdf.97

> <s_m_Source_Path>
/Users/Sebastito/Downloads

> <s_m_Source_File>
biosynth_p1.0.sdf.gz

> <i_m_Source_File_Index>
97

> <chiral flag>
1

> <version>
0

> <i_m_ct_enhanced_stereo_status>
0

> <s_m_source_file>
ligprep_vs.maegz

> <i_m_source_file_index>
97

> <i_lp_mmshare_version>
37011

> <r_epik_Ionization_Penalty>
0.793538

> <r_epik_Ionization_Penalty_Charging>
0.79321

> <r_epik_Ionization_Penalty_Neutral>
0.000328124

> <r_epik_State_Penalty>
0.67119

> <r_epik_Charging_Adjusted_Penalty>
1.4644

> <i_epik_Tot_Q>
5

> <i_epik_Tot_abs_Q>
5

> <s_epik_Chemistry_Notes>
This compound contains an acetal/aminal-like group ( X-CH(R)-Y where X, Y are N, S, or O) that may be acid/base labile, releasing an aldehyde.

> <i_f3d_flags>
0

> <s_lp_Force_Field>
OPLS_2005

> <r_lp_Energy>
94.3603

> <b_lp_Chiralities_Consistent>
1

> <s_lp_Variant>
ZINC60184554-1

$$$$
ZINC60184554
                    3D
 Structure written by MMmdl.
 72 74  0  0  1  0            999 V2000
   -3.0667    4.0182    2.2375 C   0  0  0  0  0  0
   -2.4334    2.6701    1.8377 C   0  0  2  0  0  0
   -0.9039    2.6847    2.0345 C   0  0  0  0  0  0
   -0.3213    1.4595    1.6021 O   0  0  0  0  0  0
   -0.5234    1.1154    0.2639 C   0  0  2  0  0  0
   -0.0962    1.8785   -0.3899 H   0  0  0  0  0  0
   -2.0386    0.9478    0.0176 C   0  0  1  0  0  0
   -2.3910    0.1368    0.6516 H   0  0  0  0  0  0
   -2.7891    2.2524    0.3905 C   0  0  2  0  0  0
   -3.8638    2.0612    0.3541 H   0  0  0  0  0  0
   -2.4904    3.3574   -0.5583 N   0  3  0  0  0  0
   -3.5102    3.5837   -1.6027 C   0  0  0  0  0  0
   -2.3163    0.5943   -1.3243 O   0  0  0  0  0  0
    0.0648   -0.1225    0.0071 O   0  0  0  0  0  0
    1.4906   -0.1304   -0.0266 C   0  0  2  0  0  0
    1.9008    0.8818   -0.0246 H   0  0  0  0  0  0
    1.9134   -0.8361   -1.3363 C   0  0  1  0  0  0
    3.0001   -0.7796   -1.4163 H   0  0  0  0  0  0
    1.5139   -2.3284   -1.3439 C   0  0  0  0  0  0
    2.0778   -3.0775   -0.1163 C   0  0  1  0  0  0
    3.1670   -3.0447   -0.1710 H   0  0  0  0  0  0
    1.6386   -2.4119    1.2070 C   0  0  1  0  0  0
    2.1413   -2.9188    2.0333 H   0  0  0  0  0  0
    2.0653   -0.9234    1.1705 C   0  0  2  0  0  0
    3.1477   -0.9299    1.0331 H   0  0  0  0  0  0
    1.9306   -0.2555    2.4076 O   0  0  0  0  0  0
    0.2209   -2.5606    1.2776 O   0  0  0  0  0  0
   -0.2813   -2.9121    2.5291 C   0  0  2  0  0  0
    0.2848   -3.7694    2.9000 H   0  0  0  0  0  0
   -1.7598   -3.3308    2.3619 C   0  0  1  0  0  0
   -1.7810   -4.1871    1.6872 H   0  0  0  0  0  0
   -2.2907   -3.7827    3.7321 C   0  0  0  0  0  0
   -1.8875   -2.8018    4.8085 C   0  0  0  0  0  0
   -0.8889   -1.9189    4.6303 C   0  0  0  0  0  0
   -0.1473   -1.8836    3.4727 O   0  0  0  0  0  0
   -0.4568   -0.8808    5.6435 C   0  0  0  0  0  0
   -0.4548    0.4576    5.0319 N   0  3  0  0  0  0
   -2.5824   -2.2592    1.7771 N   0  0  0  0  0  0
    1.7119   -4.5066   -0.1439 N   0  3  0  0  0  0
    1.3815   -0.1367   -2.5209 N   0  3  0  0  0  0
   -2.9790    1.7381    2.7532 O   0  0  0  0  0  0
   -2.6673    4.8471    1.6524 H   0  0  0  0  0  0
   -2.8760    4.2509    3.2862 H   0  0  0  0  0  0
   -4.1485    4.0060    2.0957 H   0  0  0  0  0  0
   -0.4522    3.5053    1.4745 H   0  0  0  0  0  0
   -0.6492    2.8482    3.0823 H   0  0  0  0  0  0
   -3.2064    4.4123   -2.2425 H   0  0  0  0  0  0
   -4.4702    3.8395   -1.1530 H   0  0  0  0  0  0
   -3.6459    2.7039   -2.2309 H   0  0  0  0  0  0
   -2.0557    1.3031   -1.8914 H   0  0  0  0  0  0
    0.4267   -2.4210   -1.3692 H   0  0  0  0  0  0
    1.8800   -2.7990   -2.2575 H   0  0  0  0  0  0
    2.3913    0.5684    2.3569 H   0  0  0  0  0  0
   -3.3770   -3.8788    3.7109 H   0  0  0  0  0  0
   -1.8906   -4.7623    3.9957 H   0  0  0  0  0  0
   -2.4404   -2.8311    5.7362 H   0  0  0  0  0  0
   -1.1269   -0.8848    6.5037 H   0  0  0  0  0  0
    0.5449   -1.1187    6.0020 H   0  0  0  0  0  0
   -0.1534    1.1393    5.7134 H   0  0  0  0  0  0
   -2.2456   -2.0221    0.8452 H   0  0  0  0  0  0
    0.7074   -4.6004   -0.0911 H   0  0  0  0  0  0
    0.3716   -0.1535   -2.4974 H   0  0  0  0  0  0
   -2.8745    2.0782    3.6288 H   0  0  0  0  0  0
    2.1330   -4.9804    0.6426 H   0  0  0  0  0  0
   -2.4348    4.2106   -0.0202 H   0  0  0  0  0  0
   -1.3872    0.6812    4.7152 H   0  0  0  0  0  0
    1.7033   -0.6002   -3.3592 H   0  0  0  0  0  0
   -3.5485   -2.5686    1.6757 H   0  0  0  0  0  0
    2.0427   -4.9264   -1.0012 H   0  0  0  0  0  0
   -1.5921    3.1950   -0.9890 H   0  0  0  0  0  0
    1.7045    0.8203   -2.5258 H   0  0  0  0  0  0
    0.1784    0.4608    4.2448 H   0  0  0  0  0  0
  1  2  1  0  0  0
  1 42  1  0  0  0
  1 43  1  0  0  0
  1 44  1  0  0  0
  2  9  1  0  0  0
  2  3  1  0  0  0
  2 41  1  0  0  0
  3  4  1  0  0  0
  3 45  1  0  0  0
  3 46  1  0  0  0
  4  5  1  0  0  0
  5  6  1  0  0  0
  5  7  1  0  0  0
  5 14  1  0  0  0
  7  8  1  0  0  0
  7  9  1  0  0  0
  7 13  1  0  0  0
  9 10  1  0  0  0
  9 11  1  0  0  0
 11 12  1  0  0  0
 11 65  1  0  0  0
 11 70  1  0  0  0
 12 47  1  0  0  0
 12 48  1  0  0  0
 12 49  1  0  0  0
 13 50  1  0  0  0
 14 15  1  0  0  0
 15 16  1  0  0  0
 15 24  1  0  0  0
 15 17  1  0  0  0
 17 18  1  0  0  0
 17 19  1  0  0  0
 17 40  1  0  0  0
 19 20  1  0  0  0
 19 51  1  0  0  0
 19 52  1  0  0  0
 20 21  1  0  0  0
 20 22  1  0  0  0
 20 39  1  0  0  0
 22 23  1  0  0  0
 22 24  1  0  0  0
 22 27  1  0  0  0
 24 25  1  0  0  0
 24 26  1  0  0  0
 26 53  1  0  0  0
 27 28  1  0  0  0
 28 29  1  0  0  0
 28 35  1  0  0  0
 28 30  1  0  0  0
 30 31  1  0  0  0
 30 32  1  0  0  0
 30 38  1  0  0  0
 32 33  1  0  0  0
 32 54  1  0  0  0
 32 55  1  0  0  0
 33 34  2  0  0  0
 33 56  1  0  0  0
 34 35  1  0  0  0
 34 36  1  0  0  0
 36 37  1  0  0  0
 36 57  1  0  0  0
 36 58  1  0  0  0
 37 59  1  0  0  0
 37 66  1  0  0  0
 37 72  1  0  0  0
 38 60  1  0  0  0
 38 68  1  0  0  0
 39 61  1  0  0  0
 39 64  1  0  0  0
 39 69  1  0  0  0
 40 62  1  0  0  0
 40 67  1  0  0  0
 40 71  1  0  0  0
 41 63  1  0  0  0
M  CHG  4  11   1  37   1  39   1  40   1
M  END
> <s_m_entry_id>
104

> <s_m_entry_name>
biosynth_p1.0.sdf.97

> <s_m_Source_Path>
/Users/Sebastito/Downloads

> <s_m_Source_File>
biosynth_p1.0.sdf.gz

> <i_m_Source_File_Index>
97

> <chiral flag>
1

> <version>
0

> <i_m_ct_enhanced_stereo_status>
0

> <s_m_source_file>
ligprep_vs.maegz

> <i_m_source_file_index>
97

> <i_lp_mmshare_version>
37011

> <r_epik_Ionization_Penalty>
0.713919

> <r_epik_Ionization_Penalty_Charging>
0.276887

> <r_epik_Ionization_Penalty_Neutral>
0.437032

> <r_epik_State_Penalty>
0.777653

> <r_epik_Charging_Adjusted_Penalty>
1.05454

> <i_epik_Tot_Q>
4

> <i_epik_Tot_abs_Q>
4

> <s_epik_Chemistry_Notes>
This compound contains an acetal/aminal-like group ( X-CH(R)-Y where X, Y are N, S, or O) that may be acid/base labile, releasing an aldehyde.

> <i_f3d_flags>
0

> <s_lp_Force_Field>
OPLS_2005

> <r_lp_Energy>
79.3773

> <b_lp_Chiralities_Consistent>
1

> <s_lp_Variant>
ZINC60184554-2

$$$$
ZINC60184554
                    3D
 Structure written by MMmdl.
 72 74  0  0  1  0            999 V2000
   -3.1630    3.6659    2.4099 C   0  0  0  0  0  0
   -2.5058    2.3800    1.8722 C   0  0  2  0  0  0
   -0.9875    2.3766    2.1347 C   0  0  0  0  0  0
   -0.3882    1.2022    1.5971 O   0  0  0  0  0  0
   -0.5198    1.0203    0.2207 C   0  0  2  0  0  0
   -0.0736    1.8607   -0.3154 H   0  0  0  0  0  0
   -2.0200    0.8767   -0.1153 C   0  0  1  0  0  0
   -2.3963   -0.0133    0.3884 H   0  0  0  0  0  0
   -2.7925    2.1278    0.3714 C   0  0  2  0  0  0
   -3.8593    1.9286    0.2485 H   0  0  0  0  0  0
   -2.4463    3.3156   -0.4531 N   0  3  0  0  0  0
   -3.6030    4.0689   -0.9779 C   0  0  0  0  0  0
   -2.2313    0.7199   -1.5062 O   0  0  0  0  0  0
    0.0928   -0.1743   -0.1526 O   0  0  0  0  0  0
    1.5193   -0.1518   -0.1827 C   0  0  2  0  0  0
    1.9098    0.8671   -0.2245 H   0  0  0  0  0  0
    1.9468   -0.8950   -1.4693 C   0  0  1  0  0  0
    3.0326   -0.8295   -1.5536 H   0  0  0  0  0  0
    1.5636   -2.3920   -1.4227 C   0  0  0  0  0  0
    2.1414   -3.0889   -0.1696 C   0  0  1  0  0  0
    3.2297   -3.0428   -0.2324 H   0  0  0  0  0  0
    1.7039   -2.3811    1.1340 C   0  0  1  0  0  0
    2.2225   -2.8558    1.9691 H   0  0  0  0  0  0
    2.1249   -0.8956    1.0300 C   0  0  2  0  0  0
    3.2026   -0.9059    0.8592 H   0  0  0  0  0  0
    2.0496   -0.1836    2.2436 O   0  0  0  0  0  0
    0.2864   -2.5488    1.2291 O   0  0  0  0  0  0
   -0.2302   -2.6870    2.5184 C   0  0  2  0  0  0
    0.4261   -3.3375    3.1005 H   0  0  0  0  0  0
   -1.6216   -3.3534    2.4106 C   0  0  1  0  0  0
   -1.5112   -4.3083    1.8955 H   0  0  0  0  0  0
   -2.1453   -3.5896    3.8359 C   0  0  0  0  0  0
   -1.9573   -2.3483    4.6775 C   0  0  0  0  0  0
   -1.1062   -1.3675    4.3263 C   0  0  0  0  0  0
   -0.3207   -1.4606    3.1961 O   0  0  0  0  0  0
   -0.8917   -0.1041    5.1404 C   0  0  0  0  0  0
    0.4089    0.4929    4.9098 N   0  0  0  0  0  0
   -2.5557   -2.5180    1.6323 N   0  3  0  0  0  0
    1.8046   -4.5251   -0.1432 N   0  3  0  0  0  0
    1.4087   -0.2365   -2.6751 N   0  3  0  0  0  0
   -3.0732    1.3399    2.6466 O   0  0  0  0  0  0
   -2.7532    4.5597    1.9392 H   0  0  0  0  0  0
   -3.0026    3.7721    3.4839 H   0  0  0  0  0  0
   -4.2402    3.6637    2.2392 H   0  0  0  0  0  0
   -0.5161    3.2520    1.6855 H   0  0  0  0  0  0
   -0.7788    2.4293    3.2033 H   0  0  0  0  0  0
   -3.2567    4.9214   -1.5623 H   0  0  0  0  0  0
   -4.2310    4.4435   -0.1696 H   0  0  0  0  0  0
   -4.2111    3.4378   -1.6268 H   0  0  0  0  0  0
   -3.1541    0.5811   -1.6609 H   0  0  0  0  0  0
    0.4778   -2.4986   -1.4407 H   0  0  0  0  0  0
    1.9328   -2.8904   -2.3202 H   0  0  0  0  0  0
    1.1426   -0.1083    2.5020 H   0  0  0  0  0  0
   -3.2002   -3.8659    3.8177 H   0  0  0  0  0  0
   -1.6093   -4.4106    4.3131 H   0  0  0  0  0  0
   -2.5334   -2.2758    5.5887 H   0  0  0  0  0  0
   -1.6667    0.6193    4.8884 H   0  0  0  0  0  0
   -0.9931   -0.3309    6.2021 H   0  0  0  0  0  0
    0.4853    1.3459    5.4461 H   0  0  0  0  0  0
   -2.6791   -1.6325    2.1017 H   0  0  0  0  0  0
    0.8033   -4.6407   -0.0832 H   0  0  0  0  0  0
    0.3989   -0.2609   -2.6555 H   0  0  0  0  0  0
   -2.5319    0.5710    2.5586 H   0  0  0  0  0  0
    2.2413   -4.9609    0.6573 H   0  0  0  0  0  0
   -1.8705    3.9377    0.0966 H   0  0  0  0  0  0
    1.1292   -0.1217    5.2629 H   0  0  0  0  0  0
    1.7393   -0.7172   -3.5000 H   0  0  0  0  0  0
   -3.4477   -2.9876    1.5634 H   0  0  0  0  0  0
    2.1430   -4.9679   -0.9859 H   0  0  0  0  0  0
   -1.9094    2.9971   -1.2471 H   0  0  0  0  0  0
    1.7209    0.7240   -2.7048 H   0  0  0  0  0  0
   -2.1819   -2.3640    0.7072 H   0  0  0  0  0  0
  1  2  1  0  0  0
  1 42  1  0  0  0
  1 43  1  0  0  0
  1 44  1  0  0  0
  2  9  1  0  0  0
  2  3  1  0  0  0
  2 41  1  0  0  0
  3  4  1  0  0  0
  3 45  1  0  0  0
  3 46  1  0  0  0
  4  5  1  0  0  0
  5  6  1  0  0  0
  5  7  1  0  0  0
  5 14  1  0  0  0
  7  8  1  0  0  0
  7  9  1  0  0  0
  7 13  1  0  0  0
  9 10  1  0  0  0
  9 11  1  0  0  0
 11 12  1  0  0  0
 11 65  1  0  0  0
 11 70  1  0  0  0
 12 47  1  0  0  0
 12 48  1  0  0  0
 12 49  1  0  0  0
 13 50  1  0  0  0
 14 15  1  0  0  0
 15 16  1  0  0  0
 15 24  1  0  0  0
 15 17  1  0  0  0
 17 18  1  0  0  0
 17 19  1  0  0  0
 17 40  1  0  0  0
 19 20  1  0  0  0
 19 51  1  0  0  0
 19 52  1  0  0  0
 20 21  1  0  0  0
 20 22  1  0  0  0
 20 39  1  0  0  0
 22 23  1  0  0  0
 22 24  1  0  0  0
 22 27  1  0  0  0
 24 25  1  0  0  0
 24 26  1  0  0  0
 26 53  1  0  0  0
 27 28  1  0  0  0
 28 29  1  0  0  0
 28 35  1  0  0  0
 28 30  1  0  0  0
 30 31  1  0  0  0
 30 32  1  0  0  0
 30 38  1  0  0  0
 32 33  1  0  0  0
 32 54  1  0  0  0
 32 55  1  0  0  0
 33 34  2  0  0  0
 33 56  1  0  0  0
 34 35  1  0  0  0
 34 36  1  0  0  0
 36 37  1  0  0  0
 36 57  1  0  0  0
 36 58  1  0  0  0
 37 59  1  0  0  0
 37 66  1  0  0  0
 38 60  1  0  0  0
 38 68  1  0  0  0
 38 72  1  0  0  0
 39 61  1  0  0  0
 39 64  1  0  0  0
 39 69  1  0  0  0
 40 62  1  0  0  0
 40 67  1  0  0  0
 40 71  1  0  0  0
 41 63  1  0  0  0
M  CHG  4  11   1  38   1  39   1  40   1
M  END
> <s_m_entry_id>
104

> <s_m_entry_name>
biosynth_p1.0.sdf.97

> <s_m_Source_Path>
/Users/Sebastito/Downloads

> <s_m_Source_File>
biosynth_p1.0.sdf.gz

> <i_m_Source_File_Index>
97

> <chiral flag>
1

> <version>
0

> <i_m_ct_enhanced_stereo_status>
0

> <s_m_source_file>
ligprep_vs.maegz

> <i_m_source_file_index>
97

> <i_lp_mmshare_version>
37011

> <r_epik_Ionization_Penalty>
1.02815

> <r_epik_Ionization_Penalty_Charging>
0.339125

> <r_epik_Ionization_Penalty_Neutral>
0.68902

> <r_epik_State_Penalty>
1.12491

> <r_epik_Charging_Adjusted_Penalty>
1.46403

> <i_epik_Tot_Q>
4

> <i_epik_Tot_abs_Q>
4

> <s_epik_Chemistry_Notes>
This compound contains an acetal/aminal-like group ( X-CH(R)-Y where X, Y are N, S, or O) that may be acid/base labile, releasing an aldehyde.

> <i_f3d_flags>
0

> <s_lp_Force_Field>
OPLS_2005

> <r_lp_Energy>
77.7389

> <b_lp_Chiralities_Consistent>
1

> <s_lp_Variant>
ZINC60184554-3

$$$$
ZINC60184554
                    3D
 Structure written by MMmdl.
 71 73  0  0  1  0            999 V2000
   -3.3278    3.9015    1.7351 C   0  0  0  0  0  0
   -2.6146    2.5388    1.6289 C   0  0  2  0  0  0
   -1.0913    2.6960    1.8213 C   0  0  0  0  0  0
   -0.4138    1.4580    1.6324 O   0  0  0  0  0  0
   -0.5742    0.8624    0.3811 C   0  0  2  0  0  0
   -0.2199    1.5340   -0.4030 H   0  0  0  0  0  0
   -2.0646    0.5025    0.2077 C   0  0  1  0  0  0
   -2.3351   -0.1992    0.9984 H   0  0  0  0  0  0
   -2.9278    1.7840    0.3120 C   0  0  2  0  0  0
   -3.9757    1.4767    0.3255 H   0  0  0  0  0  0
   -2.7200    2.6529   -0.8758 N   0  3  0  0  0  0
   -3.9576    3.1199   -1.5326 C   0  0  0  0  0  0
   -2.3131   -0.1147   -1.0420 O   0  0  0  0  0  0
    0.1366   -0.3328    0.3359 O   0  0  0  0  0  0
    1.5551   -0.2106    0.4010 C   0  0  2  0  0  0
    1.8660    0.8118    0.6265 H   0  0  0  0  0  0
    2.1582   -0.6448   -0.9574 C   0  0  1  0  0  0
    3.2373   -0.4927   -0.9072 H   0  0  0  0  0  0
    1.9081   -2.1406   -1.2554 C   0  0  0  0  0  0
    2.4009   -3.0481   -0.1039 C   0  0  1  0  0  0
    3.4821   -2.9317   -0.0164 H   0  0  0  0  0  0
    1.7551   -2.6500    1.2422 C   0  0  1  0  0  0
    2.1736   -3.2768    2.0318 H   0  0  0  0  0  0
    2.0868   -1.1584    1.4979 C   0  0  2  0  0  0
    3.1747   -1.0810    1.4676 H   0  0  0  0  0  0
    1.8021   -0.7198    2.8074 O   0  0  0  0  0  0
    0.3612   -2.9029    1.0664 O   0  0  0  0  0  0
   -0.4003   -3.1229    2.2118 C   0  0  2  0  0  0
    0.1741   -3.7404    2.9057 H   0  0  0  0  0  0
   -1.6679   -3.8929    1.7797 C   0  0  1  0  0  0
   -1.3399   -4.8267    1.3217 H   0  0  0  0  0  0
   -2.4785   -4.2292    3.0412 C   0  0  0  0  0  0
   -2.5706   -3.0256    3.9500 C   0  0  0  0  0  0
   -1.7533   -1.9654    3.8236 C   0  0  0  0  0  0
   -0.7425   -1.9394    2.8860 O   0  0  0  0  0  0
   -1.8407   -0.7304    4.7035 C   0  0  0  0  0  0
   -0.7236    0.1765    4.5246 N   0  0  0  0  0  0
   -2.4623   -3.1416    0.7911 N   0  0  0  0  0  0
    2.1684   -4.4737   -0.4051 N   0  3  0  0  0  0
    1.6837    0.2074   -2.0632 N   0  3  0  0  0  0
   -3.1186    1.8014    2.7250 O   0  0  0  0  0  0
   -2.9774    4.6047    0.9792 H   0  0  0  0  0  0
   -3.1491    4.3664    2.7060 H   0  0  0  0  0  0
   -4.4072    3.7966    1.6184 H   0  0  0  0  0  0
   -0.6911    3.4239    1.1137 H   0  0  0  0  0  0
   -0.8635    3.0756    2.8183 H   0  0  0  0  0  0
   -3.7092    3.7480   -2.3881 H   0  0  0  0  0  0
   -4.5732    3.7044   -0.8491 H   0  0  0  0  0  0
   -4.5452    2.2746   -1.8921 H   0  0  0  0  0  0
   -3.2053   -0.4293   -1.0511 H   0  0  0  0  0  0
    0.8441   -2.3076   -1.4320 H   0  0  0  0  0  0
    2.4152   -2.4179   -2.1808 H   0  0  0  0  0  0
    2.1619    0.1465    2.9250 H   0  0  0  0  0  0
   -3.4807   -4.5671    2.7754 H   0  0  0  0  0  0
   -2.0063   -5.0402    3.5964 H   0  0  0  0  0  0
   -3.3330   -3.0420    4.7150 H   0  0  0  0  0  0
   -2.7708   -0.2050    4.4884 H   0  0  0  0  0  0
   -1.8793   -1.0376    5.7490 H   0  0  0  0  0  0
    0.1378   -0.2945    4.7633 H   0  0  0  0  0  0
   -2.8262   -2.2880    1.2114 H   0  0  0  0  0  0
    1.1762   -4.6422   -0.4951 H   0  0  0  0  0  0
    0.6834    0.1066   -2.1624 H   0  0  0  0  0  0
   -2.6155    1.0067    2.8190 H   0  0  0  0  0  0
    2.5362   -5.0428    0.3443 H   0  0  0  0  0  0
   -2.1668    3.4527   -0.6031 H   0  0  0  0  0  0
   -0.6508    0.4501    3.5555 H   0  0  0  0  0  0
    2.1343   -0.0726   -2.9230 H   0  0  0  0  0  0
   -1.8760   -2.8594    0.0072 H   0  0  0  0  0  0
    2.6311   -4.7205   -1.2685 H   0  0  0  0  0  0
   -2.2028    2.1186   -1.5592 H   0  0  0  0  0  0
    1.9094    1.1726   -1.8688 H   0  0  0  0  0  0
  1  2  1  0  0  0
  1 42  1  0  0  0
  1 43  1  0  0  0
  1 44  1  0  0  0
  2  9  1  0  0  0
  2  3  1  0  0  0
  2 41  1  0  0  0
  3  4  1  0  0  0
  3 45  1  0  0  0
  3 46  1  0  0  0
  4  5  1  0  0  0
  5  6  1  0  0  0
  5  7  1  0  0  0
  5 14  1  0  0  0
  7  8  1  0  0  0
  7  9  1  0  0  0
  7 13  1  0  0  0
  9 10  1  0  0  0
  9 11  1  0  0  0
 11 12  1  0  0  0
 11 65  1  0  0  0
 11 70  1  0  0  0
 12 47  1  0  0  0
 12 48  1  0  0  0
 12 49  1  0  0  0
 13 50  1  0  0  0
 14 15  1  0  0  0
 15 16  1  0  0  0
 15 24  1  0  0  0
 15 17  1  0  0  0
 17 18  1  0  0  0
 17 19  1  0  0  0
 17 40  1  0  0  0
 19 20  1  0  0  0
 19 51  1  0  0  0
 19 52  1  0  0  0
 20 21  1  0  0  0
 20 22  1  0  0  0
 20 39  1  0  0  0
 22 23  1  0  0  0
 22 24  1  0  0  0
 22 27  1  0  0  0
 24 25  1  0  0  0
 24 26  1  0  0  0
 26 53  1  0  0  0
 27 28  1  0  0  0
 28 29  1  0  0  0
 28 35  1  0  0  0
 28 30  1  0  0  0
 30 31  1  0  0  0
 30 32  1  0  0  0
 30 38  1  0  0  0
 32 33  1  0  0  0
 32 54  1  0  0  0
 32 55  1  0  0  0
 33 34  2  0  0  0
 33 56  1  0  0  0
 34 35  1  0  0  0
 34 36  1  0  0  0
 36 37  1  0  0  0
 36 57  1  0  0  0
 36 58  1  0  0  0
 37 59  1  0  0  0
 37 66  1  0  0  0
 38 60  1  0  0  0
 38 68  1  0  0  0
 39 61  1  0  0  0
 39 64  1  0  0  0
 39 69  1  0  0  0
 40 62  1  0  0  0
 40 67  1  0  0  0
 40 71  1  0  0  0
 41 63  1  0  0  0
M  CHG  3  11   1  39   1  40   1
M  END
> <s_m_entry_id>
104

> <s_m_entry_name>
biosynth_p1.0.sdf.97

> <s_m_Source_Path>
/Users/Sebastito/Downloads

> <s_m_Source_File>
biosynth_p1.0.sdf.gz

> <i_m_Source_File_Index>
97

> <chiral flag>
1

> <version>
0

> <i_m_ct_enhanced_stereo_status>
0

> <s_m_source_file>
ligprep_vs.maegz

> <i_m_source_file_index>
97

> <i_lp_mmshare_version>
37011

> <r_epik_Ionization_Penalty>
2.07721

> <r_epik_Ionization_Penalty_Charging>
0.163818

> <r_epik_Ionization_Penalty_Neutral>
1.91339

> <r_epik_State_Penalty>
1.83326

> <r_epik_Charging_Adjusted_Penalty>
1.99708

> <i_epik_Tot_Q>
3

> <i_epik_Tot_abs_Q>
3

> <s_epik_Chemistry_Notes>
This compound contains an acetal/aminal-like group ( X-CH(R)-Y where X, Y are N, S, or O) that may be acid/base labile, releasing an aldehyde.

> <i_f3d_flags>
0

> <s_lp_Force_Field>
OPLS_2005

> <r_lp_Energy>
70.5874

> <b_lp_Chiralities_Consistent>
1

> <s_lp_Variant>
ZINC60184554-4

$$$$
ZINC60184554
                    3D
 Structure written by MMmdl.
 72 74  0  0  1  0            999 V2000
   -3.7833    3.0658    1.9606 C   0  0  0  0  0  0
   -2.9280    1.9094    1.4061 C   0  0  2  0  0  0
   -1.4811    1.9768    1.9295 C   0  0  0  0  0  0
   -0.7096    0.9171    1.3792 O   0  0  0  0  0  0
   -0.5827    0.9032   -0.0097 C   0  0  2  0  0  0
   -0.1166    1.8275   -0.3573 H   0  0  0  0  0  0
   -1.9869    0.7161   -0.6259 C   0  0  1  0  0  0
   -2.3682   -0.2504   -0.2965 H   0  0  0  0  0  0
   -2.9381    1.8437   -0.1408 C   0  0  2  0  0  0
   -3.9560    1.6063   -0.4575 H   0  0  0  0  0  0
   -2.5791    3.1666   -0.7182 N   0  3  0  0  0  0
   -3.3676    3.5769   -1.8986 C   0  0  0  0  0  0
   -1.9417    0.6903   -2.0389 O   0  0  0  0  0  0
    0.1739   -0.2014   -0.3963 O   0  0  0  0  0  0
    1.5845   -0.1003   -0.1946 C   0  0  2  0  0  0
    1.9151    0.9401   -0.1933 H   0  0  0  0  0  0
    2.2453   -0.8220   -1.3923 C   0  0  1  0  0  0
    3.3260   -0.6974   -1.3106 H   0  0  0  0  0  0
    1.9400   -2.3359   -1.3892 C   0  0  0  0  0  0
    2.3727   -2.9942   -0.0623 C   0  0  1  0  0  0
    3.4466   -2.8265    0.0311 H   0  0  0  0  0  0
    1.7089   -2.3127    1.1548 C   0  0  1  0  0  0
    2.1292   -2.7504    2.0624 H   0  0  0  0  0  0
    2.0446   -0.8049    1.1062 C   0  0  2  0  0  0
    3.1341   -0.7420    1.1087 H   0  0  0  0  0  0
    1.7166   -0.1144    2.2917 O   0  0  0  0  0  0
    0.3026   -2.5410    1.0399 O   0  0  0  0  0  0
   -0.3484   -2.8703    2.2278 C   0  0  2  0  0  0
    0.2780   -3.5544    2.8047 H   0  0  0  0  0  0
   -1.6641   -3.5993    1.8741 C   0  0  1  0  0  0
   -1.4217   -4.4789    1.2766 H   0  0  0  0  0  0
   -2.3342   -4.0340    3.1888 C   0  0  0  0  0  0
   -2.3024   -2.9142    4.2053 C   0  0  0  0  0  0
   -1.4946   -1.8462    4.0699 C   0  0  0  0  0  0
   -0.6004   -1.7429    3.0278 O   0  0  0  0  0  0
   -1.3857   -0.7140    5.0723 C   0  0  0  0  0  0
   -2.5775    0.1496    5.0247 N   0  3  0  0  0  0
   -2.5540   -2.7393    1.0722 N   0  3  0  0  0  0
    2.1699   -4.4512   -0.0618 N   0  0  0  0  0  0
    1.8633   -0.2039   -2.6755 N   0  3  0  0  0  0
   -3.5164    0.7381    1.9423 O   0  0  0  0  0  0
   -3.3802    4.0405    1.6844 H   0  0  0  0  0  0
   -3.8282    3.0390    3.0504 H   0  0  0  0  0  0
   -4.8077    3.0155    1.5888 H   0  0  0  0  0  0
   -1.0171    2.9296    1.6696 H   0  0  0  0  0  0
   -1.4551    1.9064    3.0173 H   0  0  0  0  0  0
   -3.0476    4.5646   -2.2305 H   0  0  0  0  0  0
   -4.4287    3.6322   -1.6533 H   0  0  0  0  0  0
   -3.2404    2.8842   -2.7297 H   0  0  0  0  0  0
   -1.6065    1.5156   -2.3541 H   0  0  0  0  0  0
    0.8767   -2.5073   -1.5635 H   0  0  0  0  0  0
    2.4649   -2.8139   -2.2176 H   0  0  0  0  0  0
    0.7763   -0.1111    2.3849 H   0  0  0  0  0  0
   -3.3649   -4.3443    3.0129 H   0  0  0  0  0  0
   -1.8138   -4.8921    3.6156 H   0  0  0  0  0  0
   -2.9498   -3.0086    5.0654 H   0  0  0  0  0  0
   -1.2738   -1.1226    6.0771 H   0  0  0  0  0  0
   -0.4990   -0.1147    4.8626 H   0  0  0  0  0  0
   -2.4773    0.8959    5.6986 H   0  0  0  0  0  0
   -2.8043   -1.9226    1.6091 H   0  0  0  0  0  0
    2.4925   -4.8585    0.8152 H   0  0  0  0  0  0
    0.8660   -0.2916   -2.8091 H   0  0  0  0  0  0
   -3.0297   -0.0079    1.6291 H   0  0  0  0  0  0
    1.1803   -4.6774   -0.1476 H   0  0  0  0  0  0
   -2.7492    3.8626   -0.0059 H   0  0  0  0  0  0
   -3.3977   -0.3945    5.2521 H   0  0  0  0  0  0
    2.3440   -0.6739   -3.4298 H   0  0  0  0  0  0
   -3.3891   -3.2547    0.8314 H   0  0  0  0  0  0
    2.1215    0.7725   -2.6742 H   0  0  0  0  0  0
   -1.5954    3.1802   -0.9444 H   0  0  0  0  0  0
   -2.6800    0.5433    4.1004 H   0  0  0  0  0  0
   -2.0750   -2.4618    0.2273 H   0  0  0  0  0  0
  1  2  1  0  0  0
  1 42  1  0  0  0
  1 43  1  0  0  0
  1 44  1  0  0  0
  2  9  1  0  0  0
  2  3  1  0  0  0
  2 41  1  0  0  0
  3  4  1  0  0  0
  3 45  1  0  0  0
  3 46  1  0  0  0
  4  5  1  0  0  0
  5  6  1  0  0  0
  5  7  1  0  0  0
  5 14  1  0  0  0
  7  8  1  0  0  0
  7  9  1  0  0  0
  7 13  1  0  0  0
  9 10  1  0  0  0
  9 11  1  0  0  0
 11 12  1  0  0  0
 11 65  1  0  0  0
 11 70  1  0  0  0
 12 47  1  0  0  0
 12 48  1  0  0  0
 12 49  1  0  0  0
 13 50  1  0  0  0
 14 15  1  0  0  0
 15 16  1  0  0  0
 15 24  1  0  0  0
 15 17  1  0  0  0
 17 18  1  0  0  0
 17 19  1  0  0  0
 17 40  1  0  0  0
 19 20  1  0  0  0
 19 51  1  0  0  0
 19 52  1  0  0  0
 20 21  1  0  0  0
 20 22  1  0  0  0
 20 39  1  0  0  0
 22 23  1  0  0  0
 22 24  1  0  0  0
 22 27  1  0  0  0
 24 25  1  0  0  0
 24 26  1  0  0  0
 26 53  1  0  0  0
 27 28  1  0  0  0
 28 29  1  0  0  0
 28 35  1  0  0  0
 28 30  1  0  0  0
 30 31  1  0  0  0
 30 32  1  0  0  0
 30 38  1  0  0  0
 32 33  1  0  0  0
 32 54  1  0  0  0
 32 55  1  0  0  0
 33 34  2  0  0  0
 33 56  1  0  0  0
 34 35  1  0  0  0
 34 36  1  0  0  0
 36 37  1  0  0  0
 36 57  1  0  0  0
 36 58  1  0  0  0
 37 59  1  0  0  0
 37 66  1  0  0  0
 37 71  1  0  0  0
 38 60  1  0  0  0
 38 68  1  0  0  0
 38 72  1  0  0  0
 39 61  1  0  0  0
 39 64  1  0  0  0
 40 62  1  0  0  0
 40 67  1  0  0  0
 40 69  1  0  0  0
 41 63  1  0  0  0
M  CHG  4  11   1  37   1  38   1  40   1
M  END
> <s_m_entry_id>
104

> <s_m_entry_name>
biosynth_p1.0.sdf.97

> <s_m_Source_Path>
/Users/Sebastito/Downloads

> <s_m_Source_File>
biosynth_p1.0.sdf.gz

> <i_m_Source_File_Index>
97

> <chiral flag>
1

> <version>
0

> <i_m_ct_enhanced_stereo_status>
0

> <s_m_source_file>
ligprep_vs.maegz

> <i_m_source_file_index>
97

> <i_lp_mmshare_version>
37011

> <r_epik_Ionization_Penalty>
1.85001

> <r_epik_Ionization_Penalty_Charging>
0.58264

> <r_epik_Ionization_Penalty_Neutral>
1.26737

> <r_epik_State_Penalty>
1.93692

> <r_epik_Charging_Adjusted_Penalty>
2.51956

> <i_epik_Tot_Q>
4

> <i_epik_Tot_abs_Q>
4

> <s_epik_Chemistry_Notes>
This compound contains an acetal/aminal-like group ( X-CH(R)-Y where X, Y are N, S, or O) that may be acid/base labile, releasing an aldehyde.

> <i_f3d_flags>
0

> <s_lp_Force_Field>
OPLS_2005

> <r_lp_Energy>
82.3742

> <b_lp_Chiralities_Consistent>
1

> <s_lp_Variant>
ZINC60184554-5

$$$$
ZINC60184554
                    3D
 Structure written by MMmdl.
 72 74  0  0  1  0            999 V2000
   -3.5912    3.8928    1.4452 C   0  0  0  0  0  0
   -2.8751    2.5317    1.3400 C   0  0  2  0  0  0
   -1.3971    2.6420    1.7715 C   0  0  0  0  0  0
   -0.7131    1.4058    1.5896 O   0  0  0  0  0  0
   -0.6955    0.9079    0.2850 C   0  0  2  0  0  0
   -0.2310    1.6298   -0.3903 H   0  0  0  0  0  0
   -2.1483    0.5992   -0.1309 C   0  0  1  0  0  0
   -2.5507   -0.1342    0.5677 H   0  0  0  0  0  0
   -2.9867    1.8997   -0.0696 C   0  0  2  0  0  0
   -4.0320    1.6375   -0.2477 H   0  0  0  0  0  0
   -2.5621    2.8612   -1.1211 N   0  3  0  0  0  0
   -3.6281    3.2644   -2.0591 C   0  0  0  0  0  0
   -2.2275    0.0465   -1.4315 O   0  0  0  0  0  0
    0.0102   -0.2909    0.2654 O   0  0  0  0  0  0
    1.4269   -0.1333    0.3309 C   0  0  2  0  0  0
    1.7172    0.8953    0.5580 H   0  0  0  0  0  0
    2.0351   -0.5505   -1.0291 C   0  0  1  0  0  0
    3.1127   -0.4061   -0.9405 H   0  0  0  0  0  0
    1.8179   -2.0516   -1.3199 C   0  0  0  0  0  0
    2.3590   -2.9357   -0.1734 C   0  0  1  0  0  0
    3.4346   -2.7692   -0.0987 H   0  0  0  0  0  0
    1.7148   -2.5631    1.1816 C   0  0  1  0  0  0
    2.1754   -3.1670    1.9658 H   0  0  0  0  0  0
    1.9909   -1.0576    1.4296 C   0  0  2  0  0  0
    3.0752   -0.9390    1.3988 H   0  0  0  0  0  0
    1.6853   -0.6097    2.7322 O   0  0  0  0  0  0
    0.3223   -2.8604    1.0449 O   0  0  0  0  0  0
   -0.3553   -3.2256    2.2069 C   0  0  2  0  0  0
    0.2392   -3.9694    2.7419 H   0  0  0  0  0  0
   -1.7056   -3.8547    1.7909 C   0  0  1  0  0  0
   -1.5038   -4.7151    1.1519 H   0  0  0  0  0  0
   -2.4369   -4.3150    3.0636 C   0  0  0  0  0  0
   -2.3644   -3.2563    4.1411 C   0  0  0  0  0  0
   -1.4801   -2.2441    4.0894 C   0  0  0  0  0  0
   -0.5617   -2.1385    3.0709 O   0  0  0  0  0  0
   -1.3191   -1.1745    5.1518 C   0  0  0  0  0  0
   -1.7590    0.1381    4.6520 N   0  3  0  0  0  0
   -2.5214   -2.9007    1.0154 N   0  3  0  0  0  0
    2.1988   -4.3707   -0.4750 N   0  3  0  0  0  0
    1.5805    0.3087   -2.1335 N   0  0  0  0  0  0
   -3.5375    1.7059    2.2803 O   0  0  0  0  0  0
   -3.1242    4.6487    0.8132 H   0  0  0  0  0  0
   -3.5672    4.2754    2.4666 H   0  0  0  0  0  0
   -4.6381    3.8154    1.1486 H   0  0  0  0  0  0
   -0.8861    3.4136    1.1932 H   0  0  0  0  0  0
   -1.3195    2.9385    2.8183 H   0  0  0  0  0  0
   -3.2324    3.9680   -2.7917 H   0  0  0  0  0  0
   -4.4489    3.7492   -1.5295 H   0  0  0  0  0  0
   -4.0202    2.3991   -2.5947 H   0  0  0  0  0  0
   -1.8348    0.6453   -2.0483 H   0  0  0  0  0  0
    0.7570   -2.2497   -1.4811 H   0  0  0  0  0  0
    2.3210   -2.3162   -2.2512 H   0  0  0  0  0  0
    0.7525   -0.6826    2.8606 H   0  0  0  0  0  0
   -3.4797   -4.5496    2.8461 H   0  0  0  0  0  0
   -1.9822   -5.2258    3.4551 H   0  0  0  0  0  0
   -3.0411   -3.3551    4.9778 H   0  0  0  0  0  0
   -1.8943   -1.4337    6.0414 H   0  0  0  0  0  0
   -0.2713   -1.1138    5.4477 H   0  0  0  0  0  0
   -1.6214    0.8310    5.3747 H   0  0  0  0  0  0
   -2.7312   -2.0952    1.5860 H   0  0  0  0  0  0
    1.2182   -4.5942   -0.5638 H   0  0  0  0  0  0
    2.0872    0.0835   -2.9893 H   0  0  0  0  0  0
   -3.1578    0.8424    2.2409 H   0  0  0  0  0  0
    2.6049   -4.9210    0.2686 H   0  0  0  0  0  0
   -2.2054    3.6916   -0.6698 H   0  0  0  0  0  0
   -2.7394    0.0993    4.4126 H   0  0  0  0  0  0
    0.5951    0.1420   -2.3301 H   0  0  0  0  0  0
   -3.3828   -3.3469    0.7326 H   0  0  0  0  0  0
    2.6707   -4.5864   -1.3421 H   0  0  0  0  0  0
   -1.8150    2.4444   -1.6570 H   0  0  0  0  0  0
   -1.2167    0.3933    3.8393 H   0  0  0  0  0  0
   -2.0096   -2.6098    0.1943 H   0  0  0  0  0  0
  1  2  1  0  0  0
  1 42  1  0  0  0
  1 43  1  0  0  0
  1 44  1  0  0  0
  2  9  1  0  0  0
  2  3  1  0  0  0
  2 41  1  0  0  0
  3  4  1  0  0  0
  3 45  1  0  0  0
  3 46  1  0  0  0
  4  5  1  0  0  0
  5  6  1  0  0  0
  5  7  1  0  0  0
  5 14  1  0  0  0
  7  8  1  0  0  0
  7  9  1  0  0  0
  7 13  1  0  0  0
  9 10  1  0  0  0
  9 11  1  0  0  0
 11 12  1  0  0  0
 11 65  1  0  0  0
 11 70  1  0  0  0
 12 47  1  0  0  0
 12 48  1  0  0  0
 12 49  1  0  0  0
 13 50  1  0  0  0
 14 15  1  0  0  0
 15 16  1  0  0  0
 15 24  1  0  0  0
 15 17  1  0  0  0
 17 18  1  0  0  0
 17 19  1  0  0  0
 17 40  1  0  0  0
 19 20  1  0  0  0
 19 51  1  0  0  0
 19 52  1  0  0  0
 20 21  1  0  0  0
 20 22  1  0  0  0
 20 39  1  0  0  0
 22 23  1  0  0  0
 22 24  1  0  0  0
 22 27  1  0  0  0
 24 25  1  0  0  0
 24 26  1  0  0  0
 26 53  1  0  0  0
 27 28  1  0  0  0
 28 29  1  0  0  0
 28 35  1  0  0  0
 28 30  1  0  0  0
 30 31  1  0  0  0
 30 32  1  0  0  0
 30 38  1  0  0  0
 32 33  1  0  0  0
 32 54  1  0  0  0
 32 55  1  0  0  0
 33 34  2  0  0  0
 33 56  1  0  0  0
 34 35  1  0  0  0
 34 36  1  0  0  0
 36 37  1  0  0  0
 36 57  1  0  0  0
 36 58  1  0  0  0
 37 59  1  0  0  0
 37 66  1  0  0  0
 37 71  1  0  0  0
 38 60  1  0  0  0
 38 68  1  0  0  0
 38 72  1  0  0  0
 39 61  1  0  0  0
 39 64  1  0  0  0
 39 69  1  0  0  0
 40 62  1  0  0  0
 40 67  1  0  0  0
 41 63  1  0  0  0
M  CHG  4  11   1  37   1  38   1  39   1
M  END
> <s_m_entry_id>
104

> <s_m_entry_name>
biosynth_p1.0.sdf.97

> <s_m_Source_Path>
/Users/Sebastito/Downloads

> <s_m_Source_File>
biosynth_p1.0.sdf.gz

> <i_m_Source_File_Index>
97

> <chiral flag>
1

> <version>
0

> <i_m_ct_enhanced_stereo_status>
0

> <s_m_source_file>
ligprep_vs.maegz

> <i_m_source_file_index>
97

> <i_lp_mmshare_version>
37011

> <r_epik_Ionization_Penalty>
1.95127

> <r_epik_Ionization_Penalty_Charging>
0.631188

> <r_epik_Ionization_Penalty_Neutral>
1.32008

> <r_epik_State_Penalty>
2.00464

> <r_epik_Charging_Adjusted_Penalty>
2.63583

> <i_epik_Tot_Q>
4

> <i_epik_Tot_abs_Q>
4

> <s_epik_Chemistry_Notes>
This compound contains an acetal/aminal-like group ( X-CH(R)-Y where X, Y are N, S, or O) that may be acid/base labile, releasing an aldehyde.

> <i_f3d_flags>
0

> <s_lp_Force_Field>
OPLS_2005

> <r_lp_Energy>
82.7188

> <b_lp_Chiralities_Consistent>
1

> <s_lp_Variant>
ZINC60184554-6

$$$$
ZINC60184554
                    3D
 Structure written by MMmdl.
 71 73  0  0  1  0            999 V2000
   -2.9868    4.5839    1.3897 C   0  0  0  0  0  0
   -2.4109    3.1544    1.3664 C   0  0  2  0  0  0
   -0.8807    3.1674    1.5651 C   0  0  0  0  0  0
   -0.3376    1.8548    1.4725 O   0  0  0  0  0  0
   -0.5568    1.1885    0.2658 C   0  0  2  0  0  0
   -0.1255    1.7588   -0.5593 H   0  0  0  0  0  0
   -2.0760    0.9891    0.0841 C   0  0  1  0  0  0
   -2.4421    0.3799    0.9100 H   0  0  0  0  0  0
   -2.7871    2.3634    0.0877 C   0  0  2  0  0  0
   -3.8636    2.1794    0.0918 H   0  0  0  0  0  0
   -2.4547    3.1233   -1.1456 N   0  3  0  0  0  0
   -3.6126    3.7040   -1.8541 C   0  0  0  0  0  0
   -2.3768    0.3263   -1.1299 O   0  0  0  0  0  0
    0.0185   -0.0769    0.3297 O   0  0  0  0  0  0
    1.4419   -0.0864    0.2464 C   0  0  2  0  0  0
    1.8677    0.9131    0.3626 H   0  0  0  0  0  0
    1.8511   -0.6739   -1.1238 C   0  0  1  0  0  0
    2.9416   -0.6978   -1.1385 H   0  0  0  0  0  0
    1.3781   -2.1345   -1.2730 C   0  0  0  0  0  0
    1.9247   -3.0214   -0.1333 C   0  0  1  0  0  0
    3.0134   -3.0260   -0.2040 H   0  0  0  0  0  0
    1.5360   -2.4734    1.2593 C   0  0  1  0  0  0
    2.0409   -3.0693    2.0227 H   0  0  0  0  0  0
    2.0000   -0.9989    1.3596 C   0  0  2  0  0  0
    3.0839   -1.0103    1.2347 H   0  0  0  0  0  0
    1.8330   -0.4390    2.6449 O   0  0  0  0  0  0
    0.1168   -2.5777    1.3644 O   0  0  0  0  0  0
   -0.3568   -3.1021    2.5655 C   0  0  2  0  0  0
    0.1376   -4.0613    2.7347 H   0  0  0  0  0  0
   -1.8770   -3.3366    2.4229 C   0  0  1  0  0  0
   -2.0215   -4.0399    1.6022 H   0  0  0  0  0  0
   -2.3868   -3.9872    3.7199 C   0  0  0  0  0  0
   -1.8327   -3.2676    4.9280 C   0  0  0  0  0  0
   -0.7583   -2.4624    4.8477 C   0  0  0  0  0  0
   -0.0721   -2.2821    3.6692 O   0  0  0  0  0  0
   -0.1808   -1.6674    6.0001 C   0  0  0  0  0  0
    1.1609   -2.1649    6.3462 N   0  3  0  0  0  0
   -2.6015   -2.0944    2.1044 N   0  0  0  0  0  0
    1.5003   -4.4241   -0.2989 N   0  3  0  0  0  0
    1.4334    0.1734   -2.2512 N   0  0  0  0  0  0
   -2.9866    2.5231    2.4951 O   0  0  0  0  0  0
   -2.5682    5.2032    0.5961 H   0  0  0  0  0  0
   -2.7642    5.0854    2.3326 H   0  0  0  0  0  0
   -4.0710    4.5782    1.2706 H   0  0  0  0  0  0
   -0.4031    3.7974    0.8131 H   0  0  0  0  0  0
   -0.6183    3.5912    2.5351 H   0  0  0  0  0  0
   -3.2736    4.2441   -2.7381 H   0  0  0  0  0  0
   -4.1591    4.4006   -1.2188 H   0  0  0  0  0  0
   -4.2973    2.9195   -2.1782 H   0  0  0  0  0  0
   -1.9981   -0.5395   -1.1005 H   0  0  0  0  0  0
    0.2878   -2.1747   -1.2934 H   0  0  0  0  0  0
    1.7156   -2.5281   -2.2329 H   0  0  0  0  0  0
    0.9071   -0.3287    2.8017 H   0  0  0  0  0  0
   -3.4771   -3.9729    3.7522 H   0  0  0  0  0  0
   -2.0812   -5.0327    3.7732 H   0  0  0  0  0  0
   -2.3441   -3.4153    5.8682 H   0  0  0  0  0  0
   -0.1167   -0.6157    5.7193 H   0  0  0  0  0  0
   -0.8304   -1.7359    6.8734 H   0  0  0  0  0  0
    1.5375   -1.6178    7.1074 H   0  0  0  0  0  0
   -2.5210   -1.4294    2.8724 H   0  0  0  0  0  0
    0.4938   -4.4814   -0.2372 H   0  0  0  0  0  0
    0.4173    0.2355   -2.2940 H   0  0  0  0  0  0
   -2.7582    3.0182    3.2674 H   0  0  0  0  0  0
    1.9156   -4.9941    0.4243 H   0  0  0  0  0  0
   -1.7996    3.8560   -0.9140 H   0  0  0  0  0  0
    1.7670   -2.0834    5.5424 H   0  0  0  0  0  0
    1.7852    1.1228   -2.1341 H   0  0  0  0  0  0
   -2.1935   -1.6483    1.2845 H   0  0  0  0  0  0
    1.7992   -4.7614   -1.2032 H   0  0  0  0  0  0
   -2.0077    2.4809   -1.7844 H   0  0  0  0  0  0
    1.1006   -3.1333    6.6270 H   0  0  0  0  0  0
  1  2  1  0  0  0
  1 42  1  0  0  0
  1 43  1  0  0  0
  1 44  1  0  0  0
  2  9  1  0  0  0
  2  3  1  0  0  0
  2 41  1  0  0  0
  3  4  1  0  0  0
  3 45  1  0  0  0
  3 46  1  0  0  0
  4  5  1  0  0  0
  5  6  1  0  0  0
  5  7  1  0  0  0
  5 14  1  0  0  0
  7  8  1  0  0  0
  7  9  1  0  0  0
  7 13  1  0  0  0
  9 10  1  0  0  0
  9 11  1  0  0  0
 11 12  1  0  0  0
 11 65  1  0  0  0
 11 70  1  0  0  0
 12 47  1  0  0  0
 12 48  1  0  0  0
 12 49  1  0  0  0
 13 50  1  0  0  0
 14 15  1  0  0  0
 15 16  1  0  0  0
 15 24  1  0  0  0
 15 17  1  0  0  0
 17 18  1  0  0  0
 17 19  1  0  0  0
 17 40  1  0  0  0
 19 20  1  0  0  0
 19 51  1  0  0  0
 19 52  1  0  0  0
 20 21  1  0  0  0
 20 22  1  0  0  0
 20 39  1  0  0  0
 22 23  1  0  0  0
 22 24  1  0  0  0
 22 27  1  0  0  0
 24 25  1  0  0  0
 24 26  1  0  0  0
 26 53  1  0  0  0
 27 28  1  0  0  0
 28 29  1  0  0  0
 28 35  1  0  0  0
 28 30  1  0  0  0
 30 31  1  0  0  0
 30 32  1  0  0  0
 30 38  1  0  0  0
 32 33  1  0  0  0
 32 54  1  0  0  0
 32 55  1  0  0  0
 33 34  2  0  0  0
 33 56  1  0  0  0
 34 35  1  0  0  0
 34 36  1  0  0  0
 36 37  1  0  0  0
 36 57  1  0  0  0
 36 58  1  0  0  0
 37 59  1  0  0  0
 37 66  1  0  0  0
 37 71  1  0  0  0
 38 60  1  0  0  0
 38 68  1  0  0  0
 39 61  1  0  0  0
 39 64  1  0  0  0
 39 69  1  0  0  0
 40 62  1  0  0  0
 40 67  1  0  0  0
 41 63  1  0  0  0
M  CHG  3  11   1  37   1  39   1
M  END
> <s_m_entry_id>
104

> <s_m_entry_name>
biosynth_p1.0.sdf.97

> <s_m_Source_Path>
/Users/Sebastito/Downloads

> <s_m_Source_File>
biosynth_p1.0.sdf.gz

> <i_m_Source_File_Index>
97

> <chiral flag>
1

> <version>
0

> <i_m_ct_enhanced_stereo_status>
0

> <s_m_source_file>
ligprep_vs.maegz

> <i_m_source_file_index>
97

> <i_lp_mmshare_version>
37011

> <r_epik_Ionization_Penalty>
1.98152

> <r_epik_Ionization_Penalty_Charging>
0.157133

> <r_epik_Ionization_Penalty_Neutral>
1.82439

> <r_epik_State_Penalty>
2.16151

> <r_epik_Charging_Adjusted_Penalty>
2.31864

> <i_epik_Tot_Q>
3

> <i_epik_Tot_abs_Q>
3

> <s_epik_Chemistry_Notes>
This compound contains an acetal/aminal-like group ( X-CH(R)-Y where X, Y are N, S, or O) that may be acid/base labile, releasing an aldehyde.

> <i_f3d_flags>
0

> <s_lp_Force_Field>
OPLS_2005

> <r_lp_Energy>
68.5113

> <b_lp_Chiralities_Consistent>
1

> <s_lp_Variant>
ZINC60184554-7

$$$$
ZINC60184554
                    3D
 Structure written by MMmdl.
 71 73  0  0  1  0            999 V2000
   -3.3353    3.3749    2.3312 C   0  0  0  0  0  0
   -2.7395    2.1384    1.6297 C   0  0  2  0  0  0
   -1.3087    1.8523    2.1326 C   0  0  0  0  0  0
   -0.7089    0.7732    1.4234 O   0  0  0  0  0  0
   -0.5989    0.9352    0.0429 C   0  0  2  0  0  0
   -0.0222    1.8345   -0.1816 H   0  0  0  0  0  0
   -2.0246    1.0287   -0.5433 C   0  0  1  0  0  0
   -2.5526    0.1020   -0.3156 H   0  0  0  0  0  0
   -2.7672    2.2352    0.0833 C   0  0  2  0  0  0
   -3.8059    2.1937   -0.2516 H   0  0  0  0  0  0
   -2.1823    3.5151   -0.3954 N   0  3  0  0  0  0
   -3.1607    4.5011   -0.8962 C   0  0  0  0  0  0
   -2.0061    1.1938   -1.9489 O   0  0  0  0  0  0
    0.0040   -0.1905   -0.5201 O   0  0  0  0  0  0
    1.4341   -0.1964   -0.5481 C   0  0  2  0  0  0
    1.8226    0.8033   -0.7510 H   0  0  0  0  0  0
    1.8416   -1.1134   -1.7253 C   0  0  1  0  0  0
    2.9254   -1.0598   -1.8389 H   0  0  0  0  0  0
    1.4657   -2.5886   -1.4647 C   0  0  0  0  0  0
    2.0874   -3.1036   -0.1494 C   0  0  1  0  0  0
    3.1685   -3.0079   -0.2584 H   0  0  0  0  0  0
    1.6809   -2.2224    1.0513 C   0  0  1  0  0  0
    2.2136   -2.5679    1.9400 H   0  0  0  0  0  0
    2.0756   -0.7609    0.7447 C   0  0  2  0  0  0
    3.1513   -0.7741    0.5632 H   0  0  0  0  0  0
    1.9800    0.0970    1.8615 O   0  0  0  0  0  0
    0.2667   -2.3337    1.1870 O   0  0  0  0  0  0
   -0.1759   -2.5988    2.4791 C   0  0  2  0  0  0
    0.3822   -3.4556    2.8634 H   0  0  0  0  0  0
   -1.6732   -2.9724    2.4119 C   0  0  1  0  0  0
   -1.7533   -3.8704    1.7983 H   0  0  0  0  0  0
   -2.1530   -3.3138    3.8325 C   0  0  0  0  0  0
   -1.6496   -2.2946    4.8283 C   0  0  0  0  0  0
   -0.6271   -1.4672    4.5488 C   0  0  0  0  0  0
    0.0480   -1.5231    3.3529 O   0  0  0  0  0  0
   -0.0897   -0.4042    5.4824 C   0  0  0  0  0  0
    1.2625   -0.7659    5.9379 N   0  3  0  0  0  0
   -2.4849   -1.9152    1.7888 N   0  0  0  0  0  0
    1.8075   -4.5277    0.0902 N   0  0  0  0  0  0
    1.2782   -0.6357   -3.0015 N   0  3  0  0  0  0
   -3.5699    1.0709    2.0423 O   0  0  0  0  0  0
   -2.7472    4.2730    2.1410 H   0  0  0  0  0  0
   -3.3654    3.2402    3.4134 H   0  0  0  0  0  0
   -4.3558    3.5687    1.9981 H   0  0  0  0  0  0
   -0.6799    2.7362    2.0163 H   0  0  0  0  0  0
   -1.3151    1.6151    3.1966 H   0  0  0  0  0  0
   -2.6432    5.4016   -1.2263 H   0  0  0  0  0  0
   -3.8727    4.7830   -0.1208 H   0  0  0  0  0  0
   -3.7136    4.0976   -1.7451 H   0  0  0  0  0  0
   -1.7134    0.3848   -2.3399 H   0  0  0  0  0  0
    0.3807   -2.7010   -1.4344 H   0  0  0  0  0  0
    1.8124   -3.2049   -2.2953 H   0  0  0  0  0  0
    1.0693    0.1528    2.1112 H   0  0  0  0  0  0
   -3.2421   -3.3577    3.8702 H   0  0  0  0  0  0
   -1.7850   -4.2948    4.1346 H   0  0  0  0  0  0
   -2.1476   -2.2527    5.7860 H   0  0  0  0  0  0
   -0.0504    0.5531    4.9629 H   0  0  0  0  0  0
   -0.7465   -0.2857    6.3449 H   0  0  0  0  0  0
    1.6182   -0.0451    6.5494 H   0  0  0  0  0  0
   -2.1576   -1.7349    0.8410 H   0  0  0  0  0  0
    2.1322   -5.0951   -0.6917 H   0  0  0  0  0  0
    0.2699   -0.6631   -2.9545 H   0  0  0  0  0  0
   -3.5249    0.9950    2.9834 H   0  0  0  0  0  0
    2.2970   -4.8560    0.9217 H   0  0  0  0  0  0
   -1.6432    3.9296    0.3510 H   0  0  0  0  0  0
    1.8721   -0.8599    5.1381 H   0  0  0  0  0  0
    1.5947   -1.2321   -3.7530 H   0  0  0  0  0  0
   -3.4578   -2.2103    1.7175 H   0  0  0  0  0  0
    1.5835    0.3113   -3.1748 H   0  0  0  0  0  0
   -1.5607    3.2968   -1.1610 H   0  0  0  0  0  0
    1.2267   -1.6432    6.4373 H   0  0  0  0  0  0
  1  2  1  0  0  0
  1 42  1  0  0  0
  1 43  1  0  0  0
  1 44  1  0  0  0
  2  9  1  0  0  0
  2  3  1  0  0  0
  2 41  1  0  0  0
  3  4  1  0  0  0
  3 45  1  0  0  0
  3 46  1  0  0  0
  4  5  1  0  0  0
  5  6  1  0  0  0
  5  7  1  0  0  0
  5 14  1  0  0  0
  7  8  1  0  0  0
  7  9  1  0  0  0
  7 13  1  0  0  0
  9 10  1  0  0  0
  9 11  1  0  0  0
 11 12  1  0  0  0
 11 65  1  0  0  0
 11 70  1  0  0  0
 12 47  1  0  0  0
 12 48  1  0  0  0
 12 49  1  0  0  0
 13 50  1  0  0  0
 14 15  1  0  0  0
 15 16  1  0  0  0
 15 24  1  0  0  0
 15 17  1  0  0  0
 17 18  1  0  0  0
 17 19  1  0  0  0
 17 40  1  0  0  0
 19 20  1  0  0  0
 19 51  1  0  0  0
 19 52  1  0  0  0
 20 21  1  0  0  0
 20 22  1  0  0  0
 20 39  1  0  0  0
 22 23  1  0  0  0
 22 24  1  0  0  0
 22 27  1  0  0  0
 24 25  1  0  0  0
 24 26  1  0  0  0
 26 53  1  0  0  0
 27 28  1  0  0  0
 28 29  1  0  0  0
 28 35  1  0  0  0
 28 30  1  0  0  0
 30 31  1  0  0  0
 30 32  1  0  0  0
 30 38  1  0  0  0
 32 33  1  0  0  0
 32 54  1  0  0  0
 32 55  1  0  0  0
 33 34  2  0  0  0
 33 56  1  0  0  0
 34 35  1  0  0  0
 34 36  1  0  0  0
 36 37  1  0  0  0
 36 57  1  0  0  0
 36 58  1  0  0  0
 37 59  1  0  0  0
 37 66  1  0  0  0
 37 71  1  0  0  0
 38 60  1  0  0  0
 38 68  1  0  0  0
 39 61  1  0  0  0
 39 64  1  0  0  0
 40 62  1  0  0  0
 40 67  1  0  0  0
 40 69  1  0  0  0
 41 63  1  0  0  0
M  CHG  3  11   1  37   1  40   1
M  END
> <s_m_entry_id>
104

> <s_m_entry_name>
biosynth_p1.0.sdf.97

> <s_m_Source_Path>
/Users/Sebastito/Downloads

> <s_m_Source_File>
biosynth_p1.0.sdf.gz

> <i_m_Source_File_Index>
97

> <chiral flag>
1

> <version>
0

> <i_m_ct_enhanced_stereo_status>
0

> <s_m_source_file>
ligprep_vs.maegz

> <i_m_source_file_index>
97

> <i_lp_mmshare_version>
37011

> <r_epik_Ionization_Penalty>
2.05908

> <r_epik_Ionization_Penalty_Charging>
0.155437

> <r_epik_Ionization_Penalty_Neutral>
1.90364

> <r_epik_State_Penalty>
2.19182

> <r_epik_Charging_Adjusted_Penalty>
2.34726

> <i_epik_Tot_Q>
3

> <i_epik_Tot_abs_Q>
3

> <s_epik_Chemistry_Notes>
This compound contains an acetal/aminal-like group ( X-CH(R)-Y where X, Y are N, S, or O) that may be acid/base labile, releasing an aldehyde.

> <i_f3d_flags>
0

> <s_lp_Force_Field>
OPLS_2005

> <r_lp_Energy>
65.0744

> <b_lp_Chiralities_Consistent>
1

> <s_lp_Variant>
ZINC60184554-8

$$$$
ZINC60184554
                    3D
 Structure written by MMmdl.
 72 74  0  0  1  0            999 V2000
   -3.3533    3.3010    2.3706 C   0  0  0  0  0  0
   -2.7289    2.0823    1.6652 C   0  0  2  0  0  0
   -1.3472    1.7492    2.2681 C   0  0  0  0  0  0
   -0.7278    0.6570    1.5956 O   0  0  0  0  0  0
   -0.5130    0.8372    0.2298 C   0  0  2  0  0  0
    0.0997    1.7253    0.0617 H   0  0  0  0  0  0
   -1.8846    0.9783   -0.4618 C   0  0  1  0  0  0
   -2.4544    0.0674   -0.2777 H   0  0  0  0  0  0
   -2.6378    2.2018    0.1172 C   0  0  2  0  0  0
   -3.6499    2.1770   -0.2909 H   0  0  0  0  0  0
   -1.9909    3.4508   -0.3233 N   0  0  0  0  0  0
   -2.9038    4.5556   -0.6129 C   0  0  0  0  0  0
   -1.7610    1.1291   -1.8644 O   0  0  0  0  0  0
    0.0916   -0.2996   -0.3042 O   0  0  0  0  0  0
    1.5189   -0.3207   -0.2839 C   0  0  2  0  0  0
    1.9371    0.6810   -0.3974 H   0  0  0  0  0  0
    1.9465   -1.1555   -1.5121 C   0  0  1  0  0  0
    3.0345   -1.1220   -1.5866 H   0  0  0  0  0  0
    1.5236   -2.6356   -1.3755 C   0  0  0  0  0  0
    2.0631   -3.2648   -0.0712 C   0  0  1  0  0  0
    3.1530   -3.2547   -0.1202 H   0  0  0  0  0  0
    1.6296   -2.4602    1.1766 C   0  0  1  0  0  0
    2.1146   -2.8906    2.0553 H   0  0  0  0  0  0
    2.0871   -0.9934    0.9886 C   0  0  2  0  0  0
    3.1679   -1.0355    0.8447 H   0  0  0  0  0  0
    1.9865   -0.2017    2.1535 O   0  0  0  0  0  0
    0.2074   -2.5562    1.2579 O   0  0  0  0  0  0
   -0.3073   -2.7791    2.5340 C   0  0  2  0  0  0
    0.1926   -3.6507    2.9620 H   0  0  0  0  0  0
   -1.8188   -3.0736    2.3941 C   0  0  1  0  0  0
   -1.9427   -3.9513    1.7588 H   0  0  0  0  0  0
   -2.3861   -3.3617    3.7934 C   0  0  0  0  0  0
   -1.9084   -2.3237    4.7821 C   0  0  0  0  0  0
   -0.8266   -1.5607    4.5451 C   0  0  0  0  0  0
   -0.0821   -1.6928    3.3959 O   0  0  0  0  0  0
   -0.3134   -0.4730    5.4664 C   0  0  0  0  0  0
    0.8514   -0.9523    6.2282 N   0  3  0  0  0  0
   -2.5222   -1.9487    1.7492 N   0  3  0  0  0  0
    1.6802   -4.6855    0.0403 N   0  3  0  0  0  0
    1.4348   -0.5615   -2.7627 N   0  3  0  0  0  0
   -3.5954    1.0126    1.9961 O   0  0  0  0  0  0
   -2.7245    4.1864    2.2755 H   0  0  0  0  0  0
   -3.4770    3.1205    3.4393 H   0  0  0  0  0  0
   -4.3376    3.5374    1.9646 H   0  0  0  0  0  0
   -0.6875    2.6161    2.2068 H   0  0  0  0  0  0
   -1.4397    1.5066    3.3267 H   0  0  0  0  0  0
   -2.3457    5.4356   -0.9327 H   0  0  0  0  0  0
   -3.4991    4.8435    0.2508 H   0  0  0  0  0  0
   -3.5891    4.2918   -1.4189 H   0  0  0  0  0  0
   -2.6246    1.2554   -2.2291 H   0  0  0  0  0  0
    0.4357   -2.7159   -1.4044 H   0  0  0  0  0  0
    1.8929   -3.2006   -2.2327 H   0  0  0  0  0  0
    2.4155    0.6261    1.9950 H   0  0  0  0  0  0
   -3.4765   -3.3725    3.7704 H   0  0  0  0  0  0
   -2.0658   -4.3430    4.1454 H   0  0  0  0  0  0
   -2.4689   -2.2182    5.6998 H   0  0  0  0  0  0
   -0.0209    0.3986    4.8808 H   0  0  0  0  0  0
   -1.0977   -0.1584    6.1560 H   0  0  0  0  0  0
    1.1822   -0.2155    6.8353 H   0  0  0  0  0  0
   -2.4134   -1.1138    2.3073 H   0  0  0  0  0  0
    0.6747   -4.7659    0.0903 H   0  0  0  0  0  0
    0.4246   -0.5468   -2.7426 H   0  0  0  0  0  0
   -3.7683    1.0471    2.9249 H   0  0  0  0  0  0
    2.0917   -5.0859    0.8718 H   0  0  0  0  0  0
   -1.4503    3.2563   -1.1605 H   0  0  0  0  0  0
    1.5880   -1.2144    5.5891 H   0  0  0  0  0  0
    1.7474   -1.1067   -3.5537 H   0  0  0  0  0  0
   -3.5046   -2.1670    1.6618 H   0  0  0  0  0  0
    2.0148   -5.1896   -0.7690 H   0  0  0  0  0  0
    1.7774    0.3844   -2.8549 H   0  0  0  0  0  0
    0.5880   -1.7518    6.7866 H   0  0  0  0  0  0
   -2.1310   -1.7881    0.8323 H   0  0  0  0  0  0
  1  2  1  0  0  0
  1 42  1  0  0  0
  1 43  1  0  0  0
  1 44  1  0  0  0
  2  9  1  0  0  0
  2  3  1  0  0  0
  2 41  1  0  0  0
  3  4  1  0  0  0
  3 45  1  0  0  0
  3 46  1  0  0  0
  4  5  1  0  0  0
  5  6  1  0  0  0
  5  7  1  0  0  0
  5 14  1  0  0  0
  7  8  1  0  0  0
  7  9  1  0  0  0
  7 13  1  0  0  0
  9 10  1  0  0  0
  9 11  1  0  0  0
 11 12  1  0  0  0
 11 65  1  0  0  0
 12 47  1  0  0  0
 12 48  1  0  0  0
 12 49  1  0  0  0
 13 50  1  0  0  0
 14 15  1  0  0  0
 15 16  1  0  0  0
 15 24  1  0  0  0
 15 17  1  0  0  0
 17 18  1  0  0  0
 17 19  1  0  0  0
 17 40  1  0  0  0
 19 20  1  0  0  0
 19 51  1  0  0  0
 19 52  1  0  0  0
 20 21  1  0  0  0
 20 22  1  0  0  0
 20 39  1  0  0  0
 22 23  1  0  0  0
 22 24  1  0  0  0
 22 27  1  0  0  0
 24 25  1  0  0  0
 24 26  1  0  0  0
 26 53  1  0  0  0
 27 28  1  0  0  0
 28 29  1  0  0  0
 28 35  1  0  0  0
 28 30  1  0  0  0
 30 31  1  0  0  0
 30 32  1  0  0  0
 30 38  1  0  0  0
 32 33  1  0  0  0
 32 54  1  0  0  0
 32 55  1  0  0  0
 33 34  2  0  0  0
 33 56  1  0  0  0
 34 35  1  0  0  0
 34 36  1  0  0  0
 36 37  1  0  0  0
 36 57  1  0  0  0
 36 58  1  0  0  0
 37 59  1  0  0  0
 37 66  1  0  0  0
 37 71  1  0  0  0
 38 60  1  0  0  0
 38 68  1  0  0  0
 38 72  1  0  0  0
 39 61  1  0  0  0
 39 64  1  0  0  0
 39 69  1  0  0  0
 40 62  1  0  0  0
 40 67  1  0  0  0
 40 70  1  0  0  0
 41 63  1  0  0  0
M  CHG  4  37   1  38   1  39   1  40   1
M  END
> <s_m_entry_id>
104

> <s_m_entry_name>
biosynth_p1.0.sdf.97

> <s_m_Source_Path>
/Users/Sebastito/Downloads

> <s_m_Source_File>
biosynth_p1.0.sdf.gz

> <i_m_Source_File_Index>
97

> <chiral flag>
1

> <version>
0

> <i_m_ct_enhanced_stereo_status>
0

> <s_m_source_file>
ligprep_vs.maegz

> <i_m_source_file_index>
97

> <i_lp_mmshare_version>
37011

> <r_epik_Ionization_Penalty>
2.31594

> <r_epik_Ionization_Penalty_Charging>
0.747414

> <r_epik_Ionization_Penalty_Neutral>
1.56853

> <r_epik_State_Penalty>
2.30076

> <r_epik_Charging_Adjusted_Penalty>
3.04818

> <i_epik_Tot_Q>
4

> <i_epik_Tot_abs_Q>
4

> <s_epik_Chemistry_Notes>
This compound contains an acetal/aminal-like group ( X-CH(R)-Y where X, Y are N, S, or O) that may be acid/base labile, releasing an aldehyde.

> <i_f3d_flags>
0

> <s_lp_Force_Field>
OPLS_2005

> <r_lp_Energy>
82.5006

> <b_lp_Chiralities_Consistent>
1

> <s_lp_Variant>
ZINC60184554-9

$$$$
ZINC60184554
                    3D
 Structure written by MMmdl.
 71 73  0  0  1  0            999 V2000
   -2.8523    3.8351    2.3927 C   0  0  0  0  0  0
   -2.2725    2.4870    1.9266 C   0  0  2  0  0  0
   -0.7414    2.4559    2.1214 C   0  0  0  0  0  0
   -0.1805    1.2265    1.6741 O   0  0  0  0  0  0
   -0.3982    0.9143    0.3321 C   0  0  2  0  0  0
    0.0260    1.6878   -0.3115 H   0  0  0  0  0  0
   -1.9160    0.7628    0.1033 C   0  0  1  0  0  0
   -2.2691   -0.0433    0.7444 H   0  0  0  0  0  0
   -2.6436    2.0794    0.4729 C   0  0  2  0  0  0
   -3.7149    1.8739    0.4346 H   0  0  0  0  0  0
   -2.3365    3.1315   -0.5139 N   0  0  0  0  0  0
   -3.4399    4.0439   -0.8111 C   0  0  0  0  0  0
   -2.2262    0.4138   -1.2337 O   0  0  0  0  0  0
    0.1779   -0.3195    0.0450 O   0  0  0  0  0  0
    1.6009   -0.3266   -0.0214 C   0  0  2  0  0  0
    2.0188    0.6815    0.0229 H   0  0  0  0  0  0
    1.9853   -0.9702   -1.3733 C   0  0  1  0  0  0
    3.0702   -0.9203   -1.4763 H   0  0  0  0  0  0
    1.5681   -2.4570   -1.4439 C   0  0  0  0  0  0
    2.1300   -3.2718   -0.2560 C   0  0  1  0  0  0
    3.2188   -3.2589   -0.3218 H   0  0  0  0  0  0
    1.7171   -2.6584    1.1020 C   0  0  1  0  0  0
    2.2059   -3.2224    1.8987 H   0  0  0  0  0  0
    2.1933   -1.1833    1.1196 C   0  0  2  0  0  0
    3.2687   -1.2163    0.9380 H   0  0  0  0  0  0
    2.1426   -0.5611    2.3865 O   0  0  0  0  0  0
    0.2962   -2.7948    1.1663 O   0  0  0  0  0  0
   -0.2636   -2.8931    2.4388 C   0  0  2  0  0  0
    0.3359   -3.5890    3.0295 H   0  0  0  0  0  0
   -1.6917   -3.4666    2.2945 C   0  0  1  0  0  0
   -1.6024   -4.4462    1.8237 H   0  0  0  0  0  0
   -2.2776   -3.6602    3.7038 C   0  0  0  0  0  0
   -1.9987   -2.4545    4.5724 C   0  0  0  0  0  0
   -1.0690   -1.5389    4.2462 C   0  0  0  0  0  0
   -0.2832   -1.6710    3.1256 O   0  0  0  0  0  0
   -0.7495   -0.2996    5.0546 C   0  0  0  0  0  0
    0.6466   -0.3374    5.5184 N   0  3  0  0  0  0
   -2.5508   -2.6219    1.4474 N   0  0  0  0  0  0
    1.7342   -4.6906   -0.3439 N   0  3  0  0  0  0
    1.4305   -0.2047   -2.5057 N   0  3  0  0  0  0
   -2.8339    1.5441    2.8214 O   0  0  0  0  0  0
   -2.4158    4.6712    1.8464 H   0  0  0  0  0  0
   -2.6447    4.0102    3.4491 H   0  0  0  0  0  0
   -3.9349    3.8703    2.2645 H   0  0  0  0  0  0
   -0.2738    3.2736    1.5708 H   0  0  0  0  0  0
   -0.4798    2.6035    3.1697 H   0  0  0  0  0  0
   -3.1296    4.7897   -1.5428 H   0  0  0  0  0  0
   -3.7904    4.5776    0.0691 H   0  0  0  0  0  0
   -4.2876    3.5032   -1.2331 H   0  0  0  0  0  0
   -2.0430    1.1552   -1.7895 H   0  0  0  0  0  0
    0.4796   -2.5344   -1.4639 H   0  0  0  0  0  0
    1.9198   -2.8894   -2.3817 H   0  0  0  0  0  0
    2.5403    0.2941    2.3181 H   0  0  0  0  0  0
   -3.3531   -3.8343    3.6530 H   0  0  0  0  0  0
   -1.8373   -4.5345    4.1845 H   0  0  0  0  0  0
   -2.5824   -2.3510    5.4755 H   0  0  0  0  0  0
   -0.8956    0.5850    4.4382 H   0  0  0  0  0  0
   -1.4174   -0.2182    5.9126 H   0  0  0  0  0  0
    0.8516    0.5024    6.0410 H   0  0  0  0  0  0
   -2.1593   -2.5376    0.5105 H   0  0  0  0  0  0
    0.7282   -4.7646   -0.2864 H   0  0  0  0  0  0
    0.4213   -0.2149   -2.4574 H   0  0  0  0  0  0
   -2.5316    0.6824    2.5783 H   0  0  0  0  0  0
    2.1510   -5.2077    0.4174 H   0  0  0  0  0  0
   -2.0466    2.6938   -1.3815 H   0  0  0  0  0  0
    1.2620   -0.3965    4.7194 H   0  0  0  0  0  0
    1.7278   -0.6218   -3.3763 H   0  0  0  0  0  0
   -3.4762   -3.0379    1.3490 H   0  0  0  0  0  0
    2.0489   -5.0793   -1.2218 H   0  0  0  0  0  0
    1.7582    0.7501   -2.4646 H   0  0  0  0  0  0
    0.7836   -1.1442    6.1102 H   0  0  0  0  0  0
  1  2  1  0  0  0
  1 42  1  0  0  0
  1 43  1  0  0  0
  1 44  1  0  0  0
  2  9  1  0  0  0
  2  3  1  0  0  0
  2 41  1  0  0  0
  3  4  1  0  0  0
  3 45  1  0  0  0
  3 46  1  0  0  0
  4  5  1  0  0  0
  5  6  1  0  0  0
  5  7  1  0  0  0
  5 14  1  0  0  0
  7  8  1  0  0  0
  7  9  1  0  0  0
  7 13  1  0  0  0
  9 10  1  0  0  0
  9 11  1  0  0  0
 11 12  1  0  0  0
 11 65  1  0  0  0
 12 47  1  0  0  0
 12 48  1  0  0  0
 12 49  1  0  0  0
 13 50  1  0  0  0
 14 15  1  0  0  0
 15 16  1  0  0  0
 15 24  1  0  0  0
 15 17  1  0  0  0
 17 18  1  0  0  0
 17 19  1  0  0  0
 17 40  1  0  0  0
 19 20  1  0  0  0
 19 51  1  0  0  0
 19 52  1  0  0  0
 20 21  1  0  0  0
 20 22  1  0  0  0
 20 39  1  0  0  0
 22 23  1  0  0  0
 22 24  1  0  0  0
 22 27  1  0  0  0
 24 25  1  0  0  0
 24 26  1  0  0  0
 26 53  1  0  0  0
 27 28  1  0  0  0
 28 29  1  0  0  0
 28 35  1  0  0  0
 28 30  1  0  0  0
 30 31  1  0  0  0
 30 32  1  0  0  0
 30 38  1  0  0  0
 32 33  1  0  0  0
 32 54  1  0  0  0
 32 55  1  0  0  0
 33 34  2  0  0  0
 33 56  1  0  0  0
 34 35  1  0  0  0
 34 36  1  0  0  0
 36 37  1  0  0  0
 36 57  1  0  0  0
 36 58  1  0  0  0
 37 59  1  0  0  0
 37 66  1  0  0  0
 37 71  1  0  0  0
 38 60  1  0  0  0
 38 68  1  0  0  0
 39 61  1  0  0  0
 39 64  1  0  0  0
 39 69  1  0  0  0
 40 62  1  0  0  0
 40 67  1  0  0  0
 40 70  1  0  0  0
 41 63  1  0  0  0
M  CHG  3  37   1  39   1  40   1
M  END
> <s_m_entry_id>
104

> <s_m_entry_name>
biosynth_p1.0.sdf.97

> <s_m_Source_Path>
/Users/Sebastito/Downloads

> <s_m_Source_File>
biosynth_p1.0.sdf.gz

> <i_m_Source_File_Index>
97

> <chiral flag>
1

> <version>
0

> <i_m_ct_enhanced_stereo_status>
0

> <s_m_source_file>
ligprep_vs.maegz

> <i_m_source_file_index>
97

> <i_lp_mmshare_version>
37011

> <r_epik_Ionization_Penalty>
2.23666

> <r_epik_Ionization_Penalty_Charging>
0.231425

> <r_epik_Ionization_Penalty_Neutral>
2.00524

> <r_epik_State_Penalty>
2.4054

> <r_epik_Charging_Adjusted_Penalty>
2.63682

> <i_epik_Tot_Q>
3

> <i_epik_Tot_abs_Q>
3

> <s_epik_Chemistry_Notes>
This compound contains an acetal/aminal-like group ( X-CH(R)-Y where X, Y are N, S, or O) that may be acid/base labile, releasing an aldehyde.

> <i_f3d_flags>
0

> <s_lp_Force_Field>
OPLS_2005

> <r_lp_Energy>
73.528

> <b_lp_Chiralities_Consistent>
1

> <s_lp_Variant>
ZINC60184554-10

$$$$
ZINC60184554
                    3D
 Structure written by MMmdl.
 71 73  0  0  1  0            999 V2000
   -3.5727    3.1993    2.4639 C   0  0  0  0  0  0
   -2.9195    2.0203    1.7147 C   0  0  2  0  0  0
   -1.5244    1.6971    2.2871 C   0  0  0  0  0  0
   -0.8903    0.6682    1.5354 O   0  0  0  0  0  0
   -0.6833    0.9414    0.1840 C   0  0  2  0  0  0
   -0.0897    1.8512    0.0752 H   0  0  0  0  0  0
   -2.0636    1.0930   -0.4901 C   0  0  1  0  0  0
   -2.6048    0.1541   -0.3661 H   0  0  0  0  0  0
   -2.8421    2.2531    0.1857 C   0  0  2  0  0  0
   -3.8628    2.2671   -0.2021 H   0  0  0  0  0  0
   -2.2223    3.5724   -0.1083 N   0  3  0  0  0  0
   -2.8907    4.3628   -1.1617 C   0  0  0  0  0  0
   -1.9433    1.3456   -1.8770 O   0  0  0  0  0  0
   -0.0489   -0.1435   -0.4213 O   0  0  0  0  0  0
    1.3803   -0.1096   -0.4327 C   0  0  2  0  0  0
    1.7410    0.8997   -0.6392 H   0  0  0  0  0  0
    1.8277   -1.0199   -1.5997 C   0  0  1  0  0  0
    2.9099   -0.9295   -1.7056 H   0  0  0  0  0  0
    1.5014   -2.5049   -1.3307 C   0  0  0  0  0  0
    2.1273   -2.9862   -0.0042 C   0  0  1  0  0  0
    3.2048   -2.8450   -0.0984 H   0  0  0  0  0  0
    1.6656   -2.1161    1.1851 C   0  0  1  0  0  0
    2.1934   -2.4364    2.0861 H   0  0  0  0  0  0
    2.0186   -0.6442    0.8735 C   0  0  2  0  0  0
    3.0966   -0.6258    0.7057 H   0  0  0  0  0  0
    1.8875    0.2241    1.9786 O   0  0  0  0  0  0
    0.2538   -2.2856    1.2905 O   0  0  0  0  0  0
   -0.2104   -2.5824    2.5688 C   0  0  2  0  0  0
    0.3993   -3.3837    2.9921 H   0  0  0  0  0  0
   -1.6692   -3.0727    2.4406 C   0  0  1  0  0  0
   -1.6810   -3.9593    1.8055 H   0  0  0  0  0  0
   -2.1811   -3.4314    3.8444 C   0  0  0  0  0  0
   -1.8413   -2.3335    4.8244 C   0  0  0  0  0  0
   -0.8810   -1.4263    4.5749 C   0  0  0  0  0  0
   -0.1217   -1.4731    3.4257 O   0  0  0  0  0  0
   -0.5232   -0.2917    5.5191 C   0  0  0  0  0  0
    0.7078    0.3809    5.1499 N   0  0  0  0  0  0
   -2.5156   -2.0476    1.8022 N   0  3  0  0  0  0
    1.9065   -4.4201    0.2375 N   0  0  0  0  0  0
    1.2564   -0.5697   -2.8829 N   0  3  0  0  0  0
   -3.7644    0.9176    1.9873 O   0  0  0  0  0  0
   -2.9707    4.1062    2.4014 H   0  0  0  0  0  0
   -3.6960    2.9757    3.5245 H   0  0  0  0  0  0
   -4.5596    3.4299    2.0603 H   0  0  0  0  0  0
   -0.8878    2.5832    2.2752 H   0  0  0  0  0  0
   -1.5978    1.3840    3.3282 H   0  0  0  0  0  0
   -2.3664    5.3081   -1.3014 H   0  0  0  0  0  0
   -3.9207    4.5857   -0.8812 H   0  0  0  0  0  0
   -2.8962    3.8351   -2.1152 H   0  0  0  0  0  0
   -2.8069    1.3379   -2.2626 H   0  0  0  0  0  0
    0.4211   -2.6562   -1.3120 H   0  0  0  0  0  0
    1.8797   -3.1147   -2.1524 H   0  0  0  0  0  0
    2.4206   -0.1064    2.6861 H   0  0  0  0  0  0
   -3.2599   -3.5911    3.8312 H   0  0  0  0  0  0
   -1.7256   -4.3577    4.1967 H   0  0  0  0  0  0
   -2.4010   -2.3010    5.7480 H   0  0  0  0  0  0
   -1.3370    0.4334    5.5297 H   0  0  0  0  0  0
   -0.4230   -0.6818    6.5324 H   0  0  0  0  0  0
    1.4801   -0.2689    5.1904 H   0  0  0  0  0  0
   -2.5050   -1.2080    2.3636 H   0  0  0  0  0  0
    2.3522   -4.7100    1.1072 H   0  0  0  0  0  0
    0.2486   -0.6225   -2.8403 H   0  0  0  0  0  0
   -3.8806    0.8536    2.9237 H   0  0  0  0  0  0
    0.9118   -4.6186    0.3348 H   0  0  0  0  0  0
   -2.2568    4.1224    0.7384 H   0  0  0  0  0  0
    0.6497    0.7167    4.1992 H   0  0  0  0  0  0
    1.5925   -1.1630   -3.6284 H   0  0  0  0  0  0
   -3.4619   -2.3912    1.7227 H   0  0  0  0  0  0
    1.5355    0.3840   -3.0634 H   0  0  0  0  0  0
   -1.2542    3.4320   -0.3594 H   0  0  0  0  0  0
   -2.1503   -1.8410    0.8838 H   0  0  0  0  0  0
  1  2  1  0  0  0
  1 42  1  0  0  0
  1 43  1  0  0  0
  1 44  1  0  0  0
  2  9  1  0  0  0
  2  3  1  0  0  0
  2 41  1  0  0  0
  3  4  1  0  0  0
  3 45  1  0  0  0
  3 46  1  0  0  0
  4  5  1  0  0  0
  5  6  1  0  0  0
  5  7  1  0  0  0
  5 14  1  0  0  0
  7  8  1  0  0  0
  7  9  1  0  0  0
  7 13  1  0  0  0
  9 10  1  0  0  0
  9 11  1  0  0  0
 11 12  1  0  0  0
 11 65  1  0  0  0
 11 70  1  0  0  0
 12 47  1  0  0  0
 12 48  1  0  0  0
 12 49  1  0  0  0
 13 50  1  0  0  0
 14 15  1  0  0  0
 15 16  1  0  0  0
 15 24  1  0  0  0
 15 17  1  0  0  0
 17 18  1  0  0  0
 17 19  1  0  0  0
 17 40  1  0  0  0
 19 20  1  0  0  0
 19 51  1  0  0  0
 19 52  1  0  0  0
 20 21  1  0  0  0
 20 22  1  0  0  0
 20 39  1  0  0  0
 22 23  1  0  0  0
 22 24  1  0  0  0
 22 27  1  0  0  0
 24 25  1  0  0  0
 24 26  1  0  0  0
 26 53  1  0  0  0
 27 28  1  0  0  0
 28 29  1  0  0  0
 28 35  1  0  0  0
 28 30  1  0  0  0
 30 31  1  0  0  0
 30 32  1  0  0  0
 30 38  1  0  0  0
 32 33  1  0  0  0
 32 54  1  0  0  0
 32 55  1  0  0  0
 33 34  2  0  0  0
 33 56  1  0  0  0
 34 35  1  0  0  0
 34 36  1  0  0  0
 36 37  1  0  0  0
 36 57  1  0  0  0
 36 58  1  0  0  0
 37 59  1  0  0  0
 37 66  1  0  0  0
 38 60  1  0  0  0
 38 68  1  0  0  0
 38 71  1  0  0  0
 39 61  1  0  0  0
 39 64  1  0  0  0
 40 62  1  0  0  0
 40 67  1  0  0  0
 40 69  1  0  0  0
 41 63  1  0  0  0
M  CHG  3  11   1  38   1  40   1
M  END
> <s_m_entry_id>
104

> <s_m_entry_name>
biosynth_p1.0.sdf.97

> <s_m_Source_Path>
/Users/Sebastito/Downloads

> <s_m_Source_File>
biosynth_p1.0.sdf.gz

> <i_m_Source_File_Index>
97

> <chiral flag>
1

> <version>
0

> <i_m_ct_enhanced_stereo_status>
0

> <s_m_source_file>
ligprep_vs.maegz

> <i_m_source_file_index>
97

> <i_lp_mmshare_version>
37011

> <r_epik_Ionization_Penalty>
2.18991

> <r_epik_Ionization_Penalty_Charging>
0.179312

> <r_epik_Ionization_Penalty_Neutral>
2.0106

> <r_epik_State_Penalty>
2.42851

> <r_epik_Charging_Adjusted_Penalty>
2.60782

> <i_epik_Tot_Q>
3

> <i_epik_Tot_abs_Q>
3

> <s_epik_Chemistry_Notes>
This compound contains an acetal/aminal-like group ( X-CH(R)-Y where X, Y are N, S, or O) that may be acid/base labile, releasing an aldehyde.

> <i_f3d_flags>
0

> <s_lp_Force_Field>
OPLS_2005

> <r_lp_Energy>
63.7525

> <b_lp_Chiralities_Consistent>
1

> <s_lp_Variant>
ZINC60184554-11

$$$$
ZINC60184554
                    3D
 Structure written by MMmdl.
 71 73  0  0  1  0            999 V2000
   -3.5018    3.2776    2.4172 C   0  0  0  0  0  0
   -2.8183    2.0730    1.7414 C   0  0  2  0  0  0
   -1.3670    1.9097    2.2340 C   0  0  0  0  0  0
   -0.7240    0.8304    1.5661 O   0  0  0  0  0  0
   -0.6265    0.9441    0.1797 C   0  0  2  0  0  0
   -0.0875    1.8560   -0.0852 H   0  0  0  0  0  0
   -2.0532    0.9547   -0.4100 C   0  0  1  0  0  0
   -2.5319    0.0059   -0.1693 H   0  0  0  0  0  0
   -2.8611    2.1303    0.1928 C   0  0  2  0  0  0
   -3.8969    2.0220   -0.1353 H   0  0  0  0  0  0
   -2.3500    3.4282   -0.3214 N   0  3  0  0  0  0
   -3.3857    4.3598   -0.8115 C   0  0  0  0  0  0
   -2.0365    1.0956   -1.8178 O   0  0  0  0  0  0
    0.0146   -0.1802   -0.3357 O   0  0  0  0  0  0
    1.4425   -0.1379   -0.3414 C   0  0  2  0  0  0
    1.8169    0.8784   -0.4777 H   0  0  0  0  0  0
    1.8934   -0.9825   -1.5539 C   0  0  1  0  0  0
    2.9830   -0.9380   -1.5801 H   0  0  0  0  0  0
    1.5196   -2.4710   -1.3836 C   0  0  0  0  0  0
    2.0995   -3.0535   -0.0755 C   0  0  1  0  0  0
    3.1876   -3.0051   -0.1399 H   0  0  0  0  0  0
    1.6537   -2.2398    1.1613 C   0  0  1  0  0  0
    2.1662   -2.6324    2.0419 H   0  0  0  0  0  0
    2.0552   -0.7634    0.9343 C   0  0  2  0  0  0
    3.1349   -0.7680    0.7764 H   0  0  0  0  0  0
    1.9399    0.0456    2.0827 O   0  0  0  0  0  0
    0.2372   -2.3890    1.2588 O   0  0  0  0  0  0
   -0.2639   -2.6110    2.5399 C   0  0  2  0  0  0
    0.3197   -3.4027    3.0147 H   0  0  0  0  0  0
   -1.7300   -3.0775    2.3972 C   0  0  1  0  0  0
   -1.7493   -3.9811    1.7866 H   0  0  0  0  0  0
   -2.2724   -3.3870    3.8005 C   0  0  0  0  0  0
   -1.9269   -2.2684    4.7548 C   0  0  0  0  0  0
   -0.9515   -1.3805    4.4929 C   0  0  0  0  0  0
   -0.1788   -1.4687    3.3535 O   0  0  0  0  0  0
   -0.5895   -0.2323    5.4192 C   0  0  0  0  0  0
    0.6625    0.4102    5.0688 N   0  0  0  0  0  0
   -2.5468   -2.0535    1.7191 N   0  3  0  0  0  0
    1.7687   -4.4831    0.0695 N   0  3  0  0  0  0
    1.4131   -0.4206   -2.8264 N   0  0  0  0  0  0
   -3.5516    0.9512    2.1979 O   0  0  0  0  0  0
   -2.9820    4.2116    2.2035 H   0  0  0  0  0  0
   -3.5175    3.1664    3.5023 H   0  0  0  0  0  0
   -4.5349    3.3877    2.0852 H   0  0  0  0  0  0
   -0.7956    2.8229    2.0616 H   0  0  0  0  0  0
   -1.3422    1.7287    3.3082 H   0  0  0  0  0  0
   -2.9186    5.2792   -1.1646 H   0  0  0  0  0  0
   -4.0934    4.6187   -0.0244 H   0  0  0  0  0  0
   -3.9368    3.9189   -1.6428 H   0  0  0  0  0  0
   -1.5371    0.3820   -2.1870 H   0  0  0  0  0  0
    0.4349   -2.5877   -1.3994 H   0  0  0  0  0  0
    1.8988   -3.0394   -2.2339 H   0  0  0  0  0  0
    1.0234    0.1240    2.3011 H   0  0  0  0  0  0
   -3.3537   -3.5262    3.7731 H   0  0  0  0  0  0
   -1.8415   -4.3116    4.1860 H   0  0  0  0  0  0
   -2.4955   -2.2047    5.6715 H   0  0  0  0  0  0
   -1.3892    0.5083    5.4005 H   0  0  0  0  0  0
   -0.5189   -0.6046    6.4417 H   0  0  0  0  0  0
    1.4223   -0.2538    5.1149 H   0  0  0  0  0  0
   -2.5351   -1.2009    2.2608 H   0  0  0  0  0  0
    0.7672   -4.5953    0.1326 H   0  0  0  0  0  0
    1.7449    0.5361   -2.9433 H   0  0  0  0  0  0
   -3.5864    0.9816    3.1425 H   0  0  0  0  0  0
    2.2032   -4.8496    0.9046 H   0  0  0  0  0  0
   -1.8059    3.8791    0.4000 H   0  0  0  0  0  0
    0.6291    0.7621    4.1232 H   0  0  0  0  0  0
    1.7740   -0.9573   -3.6145 H   0  0  0  0  0  0
   -3.4979   -2.3822    1.6307 H   0  0  0  0  0  0
    2.1119   -4.9900   -0.7343 H   0  0  0  0  0  0
   -1.7427    3.2247   -1.1029 H   0  0  0  0  0  0
   -2.1644   -1.8727    0.8022 H   0  0  0  0  0  0
  1  2  1  0  0  0
  1 42  1  0  0  0
  1 43  1  0  0  0
  1 44  1  0  0  0
  2  9  1  0  0  0
  2  3  1  0  0  0
  2 41  1  0  0  0
  3  4  1  0  0  0
  3 45  1  0  0  0
  3 46  1  0  0  0
  4  5  1  0  0  0
  5  6  1  0  0  0
  5  7  1  0  0  0
  5 14  1  0  0  0
  7  8  1  0  0  0
  7  9  1  0  0  0
  7 13  1  0  0  0
  9 10  1  0  0  0
  9 11  1  0  0  0
 11 12  1  0  0  0
 11 65  1  0  0  0
 11 70  1  0  0  0
 12 47  1  0  0  0
 12 48  1  0  0  0
 12 49  1  0  0  0
 13 50  1  0  0  0
 14 15  1  0  0  0
 15 16  1  0  0  0
 15 24  1  0  0  0
 15 17  1  0  0  0
 17 18  1  0  0  0
 17 19  1  0  0  0
 17 40  1  0  0  0
 19 20  1  0  0  0
 19 51  1  0  0  0
 19 52  1  0  0  0
 20 21  1  0  0  0
 20 22  1  0  0  0
 20 39  1  0  0  0
 22 23  1  0  0  0
 22 24  1  0  0  0
 22 27  1  0  0  0
 24 25  1  0  0  0
 24 26  1  0  0  0
 26 53  1  0  0  0
 27 28  1  0  0  0
 28 29  1  0  0  0
 28 35  1  0  0  0
 28 30  1  0  0  0
 30 31  1  0  0  0
 30 32  1  0  0  0
 30 38  1  0  0  0
 32 33  1  0  0  0
 32 54  1  0  0  0
 32 55  1  0  0  0
 33 34  2  0  0  0
 33 56  1  0  0  0
 34 35  1  0  0  0
 34 36  1  0  0  0
 36 37  1  0  0  0
 36 57  1  0  0  0
 36 58  1  0  0  0
 37 59  1  0  0  0
 37 66  1  0  0  0
 38 60  1  0  0  0
 38 68  1  0  0  0
 38 71  1  0  0  0
 39 61  1  0  0  0
 39 64  1  0  0  0
 39 69  1  0  0  0
 40 62  1  0  0  0
 40 67  1  0  0  0
 41 63  1  0  0  0
M  CHG  3  11   1  38   1  39   1
M  END
> <s_m_entry_id>
104

> <s_m_entry_name>
biosynth_p1.0.sdf.97

> <s_m_Source_Path>
/Users/Sebastito/Downloads

> <s_m_Source_File>
biosynth_p1.0.sdf.gz

> <i_m_Source_File_Index>
97

> <chiral flag>
1

> <version>
0

> <i_m_ct_enhanced_stereo_status>
0

> <s_m_source_file>
ligprep_vs.maegz

> <i_m_source_file_index>
97

> <i_lp_mmshare_version>
37011

> <r_epik_Ionization_Penalty>
2.2111

> <r_epik_Ionization_Penalty_Charging>
0.195249

> <r_epik_Ionization_Penalty_Neutral>
2.01585

> <r_epik_State_Penalty>
2.46226

> <r_epik_Charging_Adjusted_Penalty>
2.65751

> <i_epik_Tot_Q>
3

> <i_epik_Tot_abs_Q>
3

> <s_epik_Chemistry_Notes>
This compound contains an acetal/aminal-like group ( X-CH(R)-Y where X, Y are N, S, or O) that may be acid/base labile, releasing an aldehyde.

> <i_f3d_flags>
0

> <s_lp_Force_Field>
OPLS_2005

> <r_lp_Energy>
61.4178

> <b_lp_Chiralities_Consistent>
1

> <s_lp_Variant>
ZINC60184554-12

$$$$
ZINC00002106
                    3D
 Structure written by MMmdl.
 33 35  0  0  1  0            999 V2000
   -2.2688    5.9806   -0.0000 C   0  0  0  0  0  0
   -0.8672    6.0801   -0.0000 C   0  0  0  0  0  0
   -0.0830    4.9124    0.0000 C   0  0  0  0  0  0
   -0.6821    3.6351    0.0000 C   0  0  0  0  0  0
   -2.1068    3.5334    0.0000 C   0  0  0  0  0  0
   -2.8802    4.7137    0.0000 C   0  0  0  0  0  0
   -2.7151    2.3238    0.0000 N   0  0  0  0  0  0
   -1.9310    1.2263    0.0000 C   0  0  0  0  0  0
   -0.5267    1.3231   -0.0000 C   0  0  0  0  0  0
    0.0907    2.5240   -0.0000 N   0  0  0  0  0  0
    0.2567    0.1672   -0.0000 N   0  0  0  0  0  0
    1.9856    0.0473    0.0000 S   0  0  0  0  0  0
    2.4361    0.6090   -1.2831 O   0  0  0  0  0  0
    2.4360    0.6090    1.2831 O   0  0  0  0  0  0
    2.2457   -1.7211   -0.0000 C   0  0  0  0  0  0
    2.3381   -2.4132    1.2240 C   0  0  0  0  0  0
    2.5319   -3.8085    1.2215 C   0  0  0  0  0  0
    2.6296   -4.5069   -0.0000 C   0  0  0  0  0  0
    2.5320   -3.8085   -1.2215 C   0  0  0  0  0  0
    2.3381   -2.4132   -1.2240 C   0  0  0  0  0  0
    2.8205   -5.8875    0.0000 N   0  0  0  0  0  0
   -2.8752    6.8746   -0.0000 H   0  0  0  0  0  0
   -0.3927    7.0504   -0.0000 H   0  0  0  0  0  0
    0.9940    4.9982    0.0000 H   0  0  0  0  0  0
   -3.9585    4.6470    0.0000 H   0  0  0  0  0  0
   -2.4301    0.2682    0.0000 H   0  0  0  0  0  0
    2.2600   -1.8829    2.1616 H   0  0  0  0  0  0
    2.6036   -4.3388    2.1600 H   0  0  0  0  0  0
    2.6036   -4.3389   -2.1599 H   0  0  0  0  0  0
    2.2600   -1.8829   -2.1616 H   0  0  0  0  0  0
    2.9882   -6.3912   -0.8594 H   0  0  0  0  0  0
    2.9881   -6.3912    0.8594 H   0  0  0  0  0  0
   -0.2521   -0.7046    0.0001 H   0  0  0  0  0  0
  1  6  2  0  0  0
  1  2  1  0  0  0
  1 22  1  0  0  0
  2  3  2  0  0  0
  2 23  1  0  0  0
  3  4  1  0  0  0
  3 24  1  0  0  0
  4 10  2  0  0  0
  4  5  1  0  0  0
  5  6  1  0  0  0
  5  7  2  0  0  0
  6 25  1  0  0  0
  7  8  1  0  0  0
  8  9  2  0  0  0
  8 26  1  0  0  0
  9 10  1  0  0  0
  9 11  1  0  0  0
 11 12  1  0  0  0
 11 33  1  0  0  0
 12 13  2  0  0  0
 12 14  2  0  0  0
 12 15  1  0  0  0
 15 20  2  0  0  0
 15 16  1  0  0  0
 16 17  2  0  0  0
 16 27  1  0  0  0
 17 18  1  0  0  0
 17 28  1  0  0  0
 18 19  2  0  0  0
 18 21  1  0  0  0
 19 20  1  0  0  0
 19 29  1  0  0  0
 20 30  1  0  0  0
 21 31  1  0  0  0
 21 32  1  0  0  0
M  END
> <s_m_entry_id>
105

> <s_m_entry_name>
biosynth_p1.0.sdf.98

> <s_m_Source_Path>
/Users/Sebastito/Downloads

> <s_m_Source_File>
biosynth_p1.0.sdf.gz

> <i_m_Source_File_Index>
98

> <chiral flag>
0

> <version>
0

> <i_m_ct_enhanced_stereo_status>
0

> <s_m_source_file>
ligprep_vs.maegz

> <i_m_source_file_index>
98

> <i_lp_mmshare_version>
37011

> <r_epik_Ionization_Penalty>
0.286692

> <r_epik_Ionization_Penalty_Charging>
0

> <r_epik_Ionization_Penalty_Neutral>
0.286692

> <r_epik_State_Penalty>
0.279511

> <r_epik_Charging_Adjusted_Penalty>
0.279511

> <i_epik_Tot_Q>
0

> <i_epik_Tot_abs_Q>
0

> <i_f3d_flags>
0

> <s_lp_Force_Field>
OPLS_2005

> <r_lp_Energy>
18.3481

> <b_lp_Chiralities_Consistent>
1

> <s_lp_Variant>
ZINC00002106-1

$$$$
ZINC00002106
                    3D
 Structure written by MMmdl.
 32 34  0  0  1  0            999 V2000
   -1.3871    6.2318   -0.0000 C   0  0  0  0  0  0
    0.0180    6.2476    0.0000 C   0  0  0  0  0  0
    0.7306    5.0345    0.0001 C   0  0  0  0  0  0
    0.0552    3.7955    0.0001 C   0  0  0  0  0  0
   -1.3701    3.7793    0.0001 C   0  0  0  0  0  0
   -2.0727    5.0032    0.0000 C   0  0  0  0  0  0
   -2.0441    2.6080    0.0001 N   0  0  0  0  0  0
   -1.3214    1.4687    0.0001 C   0  0  0  0  0  0
    0.0895    1.4601    0.0001 C   0  0  0  0  0  0
    0.7565    2.6391    0.0001 N   0  0  0  0  0  0
    0.7424    0.2889   -0.0001 N   0  5  0  0  0  0
    2.3505    0.1024   -0.0001 S   0  0  0  0  0  0
    2.9753    0.5361   -1.2601 O   0  0  0  0  0  0
    2.9754    0.5361    1.2597 O   0  0  0  0  0  0
    2.3711   -1.6894   -0.0001 C   0  0  0  0  0  0
    2.3805   -2.3897    1.2236 C   0  0  0  0  0  0
    2.4004   -3.7984    1.2211 C   0  0  0  0  0  0
    2.4111   -4.5038   -0.0000 C   0  0  0  0  0  0
    2.4007   -3.7985   -1.2212 C   0  0  0  0  0  0
    2.3807   -2.3899   -1.2237 C   0  0  0  0  0  0
    2.4324   -5.8978    0.0000 N   0  0  0  0  0  0
   -1.9395    7.1599   -0.0001 H   0  0  0  0  0  0
    0.5497    7.1879    0.0000 H   0  0  0  0  0  0
    1.8106    5.0533    0.0001 H   0  0  0  0  0  0
   -3.1529    4.9997   -0.0000 H   0  0  0  0  0  0
   -1.8845    0.5465    0.0001 H   0  0  0  0  0  0
    2.3693   -1.8536    2.1608 H   0  0  0  0  0  0
    2.4075   -4.3336    2.1595 H   0  0  0  0  0  0
    2.4080   -4.3337   -2.1595 H   0  0  0  0  0  0
    2.3698   -1.8537   -2.1611 H   0  0  0  0  0  0
    2.5578   -6.4134   -0.8592 H   0  0  0  0  0  0
    2.5576   -6.4133    0.8594 H   0  0  0  0  0  0
  1  6  2  0  0  0
  1  2  1  0  0  0
  1 22  1  0  0  0
  2  3  2  0  0  0
  2 23  1  0  0  0
  3  4  1  0  0  0
  3 24  1  0  0  0
  4 10  2  0  0  0
  4  5  1  0  0  0
  5  6  1  0  0  0
  5  7  2  0  0  0
  6 25  1  0  0  0
  7  8  1  0  0  0
  8  9  2  0  0  0
  8 26  1  0  0  0
  9 10  1  0  0  0
  9 11  1  0  0  0
 11 12  1  0  0  0
 12 13  2  0  0  0
 12 14  2  0  0  0
 12 15  1  0  0  0
 15 20  2  0  0  0
 15 16  1  0  0  0
 16 17  2  0  0  0
 16 27  1  0  0  0
 17 18  1  0  0  0
 17 28  1  0  0  0
 18 19  2  0  0  0
 18 21  1  0  0  0
 19 20  1  0  0  0
 19 29  1  0  0  0
 20 30  1  0  0  0
 21 31  1  0  0  0
 21 32  1  0  0  0
M  CHG  1  11  -1
M  END
> <s_m_entry_id>
105

> <s_m_entry_name>
biosynth_p1.0.sdf.98

> <s_m_Source_Path>
/Users/Sebastito/Downloads

> <s_m_Source_File>
biosynth_p1.0.sdf.gz

> <i_m_Source_File_Index>
98

> <chiral flag>
0

> <version>
0

> <i_m_ct_enhanced_stereo_status>
0

> <s_m_source_file>
ligprep_vs.maegz

> <i_m_source_file_index>
98

> <i_lp_mmshare_version>
37011

> <r_epik_Ionization_Penalty>
0.570144

> <r_epik_Ionization_Penalty_Charging>
0.567707

> <r_epik_Ionization_Penalty_Neutral>
0.002437

> <r_epik_State_Penalty>
0.579398

> <r_epik_Charging_Adjusted_Penalty>
1.1471

> <i_epik_Tot_Q>
-1

> <i_epik_Tot_abs_Q>
1

> <i_f3d_flags>
0

> <s_lp_Force_Field>
OPLS_2005

> <r_lp_Energy>
25.5187

> <b_lp_Chiralities_Consistent>
1

> <s_lp_Variant>
ZINC00002106-2

$$$$
ZINC60184554
                    3D
 Structure written by MMmdl.
 73 75  0  0  1  0            999 V2000
   -3.4406    3.4568    2.1845 C   0  0  0  0  0  0
   -2.8037    2.2070    1.5457 C   0  0  2  0  0  0
   -1.4031    1.9326    2.1339 C   0  0  0  0  0  0
   -0.7785    0.8271    1.4882 O   0  0  0  0  0  0
   -0.5891    0.9595    0.1120 C   0  0  2  0  0  0
    0.0061    1.8502   -0.0991 H   0  0  0  0  0  0
   -1.9760    1.0502   -0.5603 C   0  0  1  0  0  0
   -2.5207    0.1300   -0.3448 H   0  0  0  0  0  0
   -2.7455    2.2736   -0.0026 C   0  0  2  0  0  0
   -3.7642    2.2306   -0.3939 H   0  0  0  0  0  0
   -2.1276    3.5420   -0.4734 N   0  3  0  0  0  0
   -3.0715    4.5258   -1.0414 C   0  0  0  0  0  0
   -1.8675    1.1818   -1.9654 O   0  0  0  0  0  0
    0.0302   -0.1851   -0.3902 O   0  0  0  0  0  0
    1.4592   -0.1902   -0.3693 C   0  0  2  0  0  0
    1.8625    0.8121   -0.5249 H   0  0  0  0  0  0
    1.9063   -1.0725   -1.5578 C   0  0  1  0  0  0
    2.9945   -1.0287   -1.6238 H   0  0  0  0  0  0
    1.5016   -2.5501   -1.3592 C   0  0  0  0  0  0
    2.0571   -3.1148   -0.0335 C   0  0  1  0  0  0
    3.1464   -3.0868   -0.0888 H   0  0  0  0  0  0
    1.6188   -2.2645    1.1812 C   0  0  1  0  0  0
    2.1296   -2.6380    2.0717 H   0  0  0  0  0  0
    2.0356   -0.7972    0.9330 C   0  0  2  0  0  0
    3.1189   -0.8113    0.8028 H   0  0  0  0  0  0
    1.8838    0.0299    2.0664 O   0  0  0  0  0  0
    0.1991   -2.3666    1.2958 O   0  0  0  0  0  0
   -0.2551   -2.7426    2.5582 C   0  0  2  0  0  0
    0.2702   -3.6533    2.8553 H   0  0  0  0  0  0
   -1.7699   -3.0377    2.4671 C   0  0  1  0  0  0
   -1.9258   -3.8261    1.7300 H   0  0  0  0  0  0
   -2.2474   -3.5180    3.8483 C   0  0  0  0  0  0
   -1.6819   -2.6468    4.9475 C   0  0  0  0  0  0
   -0.6418   -1.8188    4.7409 C   0  0  0  0  0  0
    0.0075   -1.7608    3.5289 O   0  0  0  0  0  0
    0.0029   -0.9571    5.8080 C   0  0  0  0  0  0
   -0.5748    0.3962    5.8069 N   0  3  0  0  0  0
   -2.5191   -1.8483    2.0211 N   0  3  0  0  0  0
    1.7026   -4.5363    0.1410 N   0  3  0  0  0  0
    1.4034   -0.5429   -2.8404 N   0  3  0  0  0  0
   -3.6492    1.1425    1.9398 O   0  0  0  0  0  0
   -2.8415    4.3513    2.0126 H   0  0  0  0  0  0
   -3.5369    3.3448    3.2653 H   0  0  0  0  0  0
   -4.4387    3.6441    1.7860 H   0  0  0  0  0  0
   -0.7632    2.8097    2.0233 H   0  0  0  0  0  0
   -1.4649    1.7280    3.2033 H   0  0  0  0  0  0
   -2.5321    5.4213   -1.3495 H   0  0  0  0  0  0
   -3.8268    4.8194   -0.3127 H   0  0  0  0  0  0
   -3.5749    4.1160   -1.9176 H   0  0  0  0  0  0
   -2.7355    1.1598   -2.3413 H   0  0  0  0  0  0
    0.4148   -2.6455   -1.3786 H   0  0  0  0  0  0
    1.8750   -3.1454   -2.1940 H   0  0  0  0  0  0
    0.9608    0.1256    2.2453 H   0  0  0  0  0  0
   -3.3369   -3.5182    3.9016 H   0  0  0  0  0  0
   -1.9216   -4.5429    4.0292 H   0  0  0  0  0  0
   -2.1369   -2.7259    5.9245 H   0  0  0  0  0  0
   -0.1366   -1.4101    6.7901 H   0  0  0  0  0  0
    1.0767   -0.8911    5.6296 H   0  0  0  0  0  0
   -0.1326    0.9478    6.5289 H   0  0  0  0  0  0
   -2.3888   -1.0973    2.6829 H   0  0  0  0  0  0
    0.6992   -4.6369    0.1949 H   0  0  0  0  0  0
    0.3931   -0.5448   -2.8379 H   0  0  0  0  0  0
   -3.8357    1.2321    2.8626 H   0  0  0  0  0  0
    2.1228   -4.8906    0.9889 H   0  0  0  0  0  0
   -1.6260    3.9695    0.2918 H   0  0  0  0  0  0
   -1.5660    0.3407    5.9917 H   0  0  0  0  0  0
    1.7371   -1.1192   -3.6004 H   0  0  0  0  0  0
   -3.5021   -2.0737    1.9586 H   0  0  0  0  0  0
    2.0485   -5.0686   -0.6451 H   0  0  0  0  0  0
   -1.4669    3.3109   -1.2019 H   0  0  0  0  0  0
    1.7353    0.4022   -2.9720 H   0  0  0  0  0  0
   -0.4177    0.8328    4.9106 H   0  0  0  0  0  0
   -2.1825   -1.5601    1.1138 H   0  0  0  0  0  0
  1  2  1  0  0  0
  1 42  1  0  0  0
  1 43  1  0  0  0
  1 44  1  0  0  0
  2  9  1  0  0  0
  2  3  1  0  0  0
  2 41  1  0  0  0
  3  4  1  0  0  0
  3 45  1  0  0  0
  3 46  1  0  0  0
  4  5  1  0  0  0
  5  6  1  0  0  0
  5  7  1  0  0  0
  5 14  1  0  0  0
  7  8  1  0  0  0
  7  9  1  0  0  0
  7 13  1  0  0  0
  9 10  1  0  0  0
  9 11  1  0  0  0
 11 12  1  0  0  0
 11 65  1  0  0  0
 11 70  1  0  0  0
 12 47  1  0  0  0
 12 48  1  0  0  0
 12 49  1  0  0  0
 13 50  1  0  0  0
 14 15  1  0  0  0
 15 16  1  0  0  0
 15 24  1  0  0  0
 15 17  1  0  0  0
 17 18  1  0  0  0
 17 19  1  0  0  0
 17 40  1  0  0  0
 19 20  1  0  0  0
 19 51  1  0  0  0
 19 52  1  0  0  0
 20 21  1  0  0  0
 20 22  1  0  0  0
 20 39  1  0  0  0
 22 23  1  0  0  0
 22 24  1  0  0  0
 22 27  1  0  0  0
 24 25  1  0  0  0
 24 26  1  0  0  0
 26 53  1  0  0  0
 27 28  1  0  0  0
 28 29  1  0  0  0
 28 35  1  0  0  0
 28 30  1  0  0  0
 30 31  1  0  0  0
 30 32  1  0  0  0
 30 38  1  0  0  0
 32 33  1  0  0  0
 32 54  1  0  0  0
 32 55  1  0  0  0
 33 34  2  0  0  0
 33 56  1  0  0  0
 34 35  1  0  0  0
 34 36  1  0  0  0
 36 37  1  0  0  0
 36 57  1  0  0  0
 36 58  1  0  0  0
 37 59  1  0  0  0
 37 66  1  0  0  0
 37 72  1  0  0  0
 38 60  1  0  0  0
 38 68  1  0  0  0
 38 73  1  0  0  0
 39 61  1  0  0  0
 39 64  1  0  0  0
 39 69  1  0  0  0
 40 62  1  0  0  0
 40 67  1  0  0  0
 40 71  1  0  0  0
 41 63  1  0  0  0
M  CHG  5  11   1  37   1  38   1  39   1  40   1
M  END
> <s_m_entry_id>
106

> <s_m_entry_name>
biosynth_p1.0.sdf.99

> <s_m_Source_Path>
/Users/Sebastito/Downloads

> <s_m_Source_File>
biosynth_p1.0.sdf.gz

> <i_m_Source_File_Index>
99

> <chiral flag>
1

> <version>
0

> <i_m_ct_enhanced_stereo_status>
0

> <s_m_source_file>
ligprep_vs.maegz

> <i_m_source_file_index>
99

> <i_lp_mmshare_version>
37011

> <r_epik_Ionization_Penalty>
0.793538

> <r_epik_Ionization_Penalty_Charging>
0.79321

> <r_epik_Ionization_Penalty_Neutral>
0.000328124

> <r_epik_State_Penalty>
0.67119

> <r_epik_Charging_Adjusted_Penalty>
1.4644

> <i_epik_Tot_Q>
5

> <i_epik_Tot_abs_Q>
5

> <s_epik_Chemistry_Notes>
This compound contains an acetal/aminal-like group ( X-CH(R)-Y where X, Y are N, S, or O) that may be acid/base labile, releasing an aldehyde.

> <i_f3d_flags>
0

> <s_lp_Force_Field>
OPLS_2005

> <r_lp_Energy>
94.3603

> <b_lp_Chiralities_Consistent>
1

> <s_lp_Variant>
ZINC60184554-1

$$$$
ZINC60184554
                    3D
 Structure written by MMmdl.
 72 74  0  0  1  0            999 V2000
   -3.0667    4.0182    2.2375 C   0  0  0  0  0  0
   -2.4334    2.6701    1.8377 C   0  0  2  0  0  0
   -0.9039    2.6847    2.0345 C   0  0  0  0  0  0
   -0.3213    1.4595    1.6021 O   0  0  0  0  0  0
   -0.5234    1.1154    0.2639 C   0  0  2  0  0  0
   -0.0962    1.8785   -0.3899 H   0  0  0  0  0  0
   -2.0386    0.9478    0.0176 C   0  0  1  0  0  0
   -2.3910    0.1368    0.6516 H   0  0  0  0  0  0
   -2.7891    2.2524    0.3905 C   0  0  2  0  0  0
   -3.8638    2.0612    0.3541 H   0  0  0  0  0  0
   -2.4904    3.3574   -0.5583 N   0  3  0  0  0  0
   -3.5102    3.5837   -1.6027 C   0  0  0  0  0  0
   -2.3163    0.5943   -1.3243 O   0  0  0  0  0  0
    0.0648   -0.1225    0.0071 O   0  0  0  0  0  0
    1.4906   -0.1304   -0.0266 C   0  0  2  0  0  0
    1.9008    0.8818   -0.0246 H   0  0  0  0  0  0
    1.9134   -0.8361   -1.3363 C   0  0  1  0  0  0
    3.0001   -0.7796   -1.4163 H   0  0  0  0  0  0
    1.5139   -2.3284   -1.3439 C   0  0  0  0  0  0
    2.0778   -3.0775   -0.1163 C   0  0  1  0  0  0
    3.1670   -3.0447   -0.1710 H   0  0  0  0  0  0
    1.6386   -2.4119    1.2070 C   0  0  1  0  0  0
    2.1413   -2.9188    2.0333 H   0  0  0  0  0  0
    2.0653   -0.9234    1.1705 C   0  0  2  0  0  0
    3.1477   -0.9299    1.0331 H   0  0  0  0  0  0
    1.9306   -0.2555    2.4076 O   0  0  0  0  0  0
    0.2209   -2.5606    1.2776 O   0  0  0  0  0  0
   -0.2813   -2.9121    2.5291 C   0  0  2  0  0  0
    0.2848   -3.7694    2.9000 H   0  0  0  0  0  0
   -1.7598   -3.3308    2.3619 C   0  0  1  0  0  0
   -1.7810   -4.1871    1.6872 H   0  0  0  0  0  0
   -2.2907   -3.7827    3.7321 C   0  0  0  0  0  0
   -1.8875   -2.8018    4.8085 C   0  0  0  0  0  0
   -0.8889   -1.9189    4.6303 C   0  0  0  0  0  0
   -0.1473   -1.8836    3.4727 O   0  0  0  0  0  0
   -0.4568   -0.8808    5.6435 C   0  0  0  0  0  0
   -0.4548    0.4576    5.0319 N   0  3  0  0  0  0
   -2.5824   -2.2592    1.7771 N   0  0  0  0  0  0
    1.7119   -4.5066   -0.1439 N   0  3  0  0  0  0
    1.3815   -0.1367   -2.5209 N   0  3  0  0  0  0
   -2.9790    1.7381    2.7532 O   0  0  0  0  0  0
   -2.6673    4.8471    1.6524 H   0  0  0  0  0  0
   -2.8760    4.2509    3.2862 H   0  0  0  0  0  0
   -4.1485    4.0060    2.0957 H   0  0  0  0  0  0
   -0.4522    3.5053    1.4745 H   0  0  0  0  0  0
   -0.6492    2.8482    3.0823 H   0  0  0  0  0  0
   -3.2064    4.4123   -2.2425 H   0  0  0  0  0  0
   -4.4702    3.8395   -1.1530 H   0  0  0  0  0  0
   -3.6459    2.7039   -2.2309 H   0  0  0  0  0  0
   -2.0557    1.3031   -1.8914 H   0  0  0  0  0  0
    0.4267   -2.4210   -1.3692 H   0  0  0  0  0  0
    1.8800   -2.7990   -2.2575 H   0  0  0  0  0  0
    2.3913    0.5684    2.3569 H   0  0  0  0  0  0
   -3.3770   -3.8788    3.7109 H   0  0  0  0  0  0
   -1.8906   -4.7623    3.9957 H   0  0  0  0  0  0
   -2.4404   -2.8311    5.7362 H   0  0  0  0  0  0
   -1.1269   -0.8848    6.5037 H   0  0  0  0  0  0
    0.5449   -1.1187    6.0020 H   0  0  0  0  0  0
   -0.1534    1.1393    5.7134 H   0  0  0  0  0  0
   -2.2456   -2.0221    0.8452 H   0  0  0  0  0  0
    0.7074   -4.6004   -0.0911 H   0  0  0  0  0  0
    0.3716   -0.1535   -2.4974 H   0  0  0  0  0  0
   -2.8745    2.0782    3.6288 H   0  0  0  0  0  0
    2.1330   -4.9804    0.6426 H   0  0  0  0  0  0
   -2.4348    4.2106   -0.0202 H   0  0  0  0  0  0
   -1.3872    0.6812    4.7152 H   0  0  0  0  0  0
    1.7033   -0.6002   -3.3592 H   0  0  0  0  0  0
   -3.5485   -2.5686    1.6757 H   0  0  0  0  0  0
    2.0427   -4.9264   -1.0012 H   0  0  0  0  0  0
   -1.5921    3.1950   -0.9890 H   0  0  0  0  0  0
    1.7045    0.8203   -2.5258 H   0  0  0  0  0  0
    0.1784    0.4608    4.2448 H   0  0  0  0  0  0
  1  2  1  0  0  0
  1 42  1  0  0  0
  1 43  1  0  0  0
  1 44  1  0  0  0
  2  9  1  0  0  0
  2  3  1  0  0  0
  2 41  1  0  0  0
  3  4  1  0  0  0
  3 45  1  0  0  0
  3 46  1  0  0  0
  4  5  1  0  0  0
  5  6  1  0  0  0
  5  7  1  0  0  0
  5 14  1  0  0  0
  7  8  1  0  0  0
  7  9  1  0  0  0
  7 13  1  0  0  0
  9 10  1  0  0  0
  9 11  1  0  0  0
 11 12  1  0  0  0
 11 65  1  0  0  0
 11 70  1  0  0  0
 12 47  1  0  0  0
 12 48  1  0  0  0
 12 49  1  0  0  0
 13 50  1  0  0  0
 14 15  1  0  0  0
 15 16  1  0  0  0
 15 24  1  0  0  0
 15 17  1  0  0  0
 17 18  1  0  0  0
 17 19  1  0  0  0
 17 40  1  0  0  0
 19 20  1  0  0  0
 19 51  1  0  0  0
 19 52  1  0  0  0
 20 21  1  0  0  0
 20 22  1  0  0  0
 20 39  1  0  0  0
 22 23  1  0  0  0
 22 24  1  0  0  0
 22 27  1  0  0  0
 24 25  1  0  0  0
 24 26  1  0  0  0
 26 53  1  0  0  0
 27 28  1  0  0  0
 28 29  1  0  0  0
 28 35  1  0  0  0
 28 30  1  0  0  0
 30 31  1  0  0  0
 30 32  1  0  0  0
 30 38  1  0  0  0
 32 33  1  0  0  0
 32 54  1  0  0  0
 32 55  1  0  0  0
 33 34  2  0  0  0
 33 56  1  0  0  0
 34 35  1  0  0  0
 34 36  1  0  0  0
 36 37  1  0  0  0
 36 57  1  0  0  0
 36 58  1  0  0  0
 37 59  1  0  0  0
 37 66  1  0  0  0
 37 72  1  0  0  0
 38 60  1  0  0  0
 38 68  1  0  0  0
 39 61  1  0  0  0
 39 64  1  0  0  0
 39 69  1  0  0  0
 40 62  1  0  0  0
 40 67  1  0  0  0
 40 71  1  0  0  0
 41 63  1  0  0  0
M  CHG  4  11   1  37   1  39   1  40   1
M  END
> <s_m_entry_id>
106

> <s_m_entry_name>
biosynth_p1.0.sdf.99

> <s_m_Source_Path>
/Users/Sebastito/Downloads

> <s_m_Source_File>
biosynth_p1.0.sdf.gz

> <i_m_Source_File_Index>
99

> <chiral flag>
1

> <version>
0

> <i_m_ct_enhanced_stereo_status>
0

> <s_m_source_file>
ligprep_vs.maegz

> <i_m_source_file_index>
99

> <i_lp_mmshare_version>
37011

> <r_epik_Ionization_Penalty>
0.713919

> <r_epik_Ionization_Penalty_Charging>
0.276887

> <r_epik_Ionization_Penalty_Neutral>
0.437032

> <r_epik_State_Penalty>
0.777653

> <r_epik_Charging_Adjusted_Penalty>
1.05454

> <i_epik_Tot_Q>
4

> <i_epik_Tot_abs_Q>
4

> <s_epik_Chemistry_Notes>
This compound contains an acetal/aminal-like group ( X-CH(R)-Y where X, Y are N, S, or O) that may be acid/base labile, releasing an aldehyde.

> <i_f3d_flags>
0

> <s_lp_Force_Field>
OPLS_2005

> <r_lp_Energy>
79.3773

> <b_lp_Chiralities_Consistent>
1

> <s_lp_Variant>
ZINC60184554-2

$$$$
ZINC60184554
                    3D
 Structure written by MMmdl.
 72 74  0  0  1  0            999 V2000
   -3.1630    3.6659    2.4099 C   0  0  0  0  0  0
   -2.5058    2.3800    1.8722 C   0  0  2  0  0  0
   -0.9875    2.3766    2.1347 C   0  0  0  0  0  0
   -0.3882    1.2022    1.5971 O   0  0  0  0  0  0
   -0.5198    1.0203    0.2207 C   0  0  2  0  0  0
   -0.0736    1.8607   -0.3154 H   0  0  0  0  0  0
   -2.0200    0.8767   -0.1153 C   0  0  1  0  0  0
   -2.3963   -0.0133    0.3884 H   0  0  0  0  0  0
   -2.7925    2.1278    0.3714 C   0  0  2  0  0  0
   -3.8593    1.9286    0.2485 H   0  0  0  0  0  0
   -2.4463    3.3156   -0.4531 N   0  3  0  0  0  0
   -3.6030    4.0689   -0.9779 C   0  0  0  0  0  0
   -2.2313    0.7199   -1.5062 O   0  0  0  0  0  0
    0.0928   -0.1743   -0.1526 O   0  0  0  0  0  0
    1.5193   -0.1518   -0.1827 C   0  0  2  0  0  0
    1.9098    0.8671   -0.2245 H   0  0  0  0  0  0
    1.9468   -0.8950   -1.4693 C   0  0  1  0  0  0
    3.0326   -0.8295   -1.5536 H   0  0  0  0  0  0
    1.5636   -2.3920   -1.4227 C   0  0  0  0  0  0
    2.1414   -3.0889   -0.1696 C   0  0  1  0  0  0
    3.2297   -3.0428   -0.2324 H   0  0  0  0  0  0
    1.7039   -2.3811    1.1340 C   0  0  1  0  0  0
    2.2225   -2.8558    1.9691 H   0  0  0  0  0  0
    2.1249   -0.8956    1.0300 C   0  0  2  0  0  0
    3.2026   -0.9059    0.8592 H   0  0  0  0  0  0
    2.0496   -0.1836    2.2436 O   0  0  0  0  0  0
    0.2864   -2.5488    1.2291 O   0  0  0  0  0  0
   -0.2302   -2.6870    2.5184 C   0  0  2  0  0  0
    0.4261   -3.3375    3.1005 H   0  0  0  0  0  0
   -1.6216   -3.3534    2.4106 C   0  0  1  0  0  0
   -1.5112   -4.3083    1.8955 H   0  0  0  0  0  0
   -2.1453   -3.5896    3.8359 C   0  0  0  0  0  0
   -1.9573   -2.3483    4.6775 C   0  0  0  0  0  0
   -1.1062   -1.3675    4.3263 C   0  0  0  0  0  0
   -0.3207   -1.4606    3.1961 O   0  0  0  0  0  0
   -0.8917   -0.1041    5.1404 C   0  0  0  0  0  0
    0.4089    0.4929    4.9098 N   0  0  0  0  0  0
   -2.5557   -2.5180    1.6323 N   0  3  0  0  0  0
    1.8046   -4.5251   -0.1432 N   0  3  0  0  0  0
    1.4087   -0.2365   -2.6751 N   0  3  0  0  0  0
   -3.0732    1.3399    2.6466 O   0  0  0  0  0  0
   -2.7532    4.5597    1.9392 H   0  0  0  0  0  0
   -3.0026    3.7721    3.4839 H   0  0  0  0  0  0
   -4.2402    3.6637    2.2392 H   0  0  0  0  0  0
   -0.5161    3.2520    1.6855 H   0  0  0  0  0  0
   -0.7788    2.4293    3.2033 H   0  0  0  0  0  0
   -3.2567    4.9214   -1.5623 H   0  0  0  0  0  0
   -4.2310    4.4435   -0.1696 H   0  0  0  0  0  0
   -4.2111    3.4378   -1.6268 H   0  0  0  0  0  0
   -3.1541    0.5811   -1.6609 H   0  0  0  0  0  0
    0.4778   -2.4986   -1.4407 H   0  0  0  0  0  0
    1.9328   -2.8904   -2.3202 H   0  0  0  0  0  0
    1.1426   -0.1083    2.5020 H   0  0  0  0  0  0
   -3.2002   -3.8659    3.8177 H   0  0  0  0  0  0
   -1.6093   -4.4106    4.3131 H   0  0  0  0  0  0
   -2.5334   -2.2758    5.5887 H   0  0  0  0  0  0
   -1.6667    0.6193    4.8884 H   0  0  0  0  0  0
   -0.9931   -0.3309    6.2021 H   0  0  0  0  0  0
    0.4853    1.3459    5.4461 H   0  0  0  0  0  0
   -2.6791   -1.6325    2.1017 H   0  0  0  0  0  0
    0.8033   -4.6407   -0.0832 H   0  0  0  0  0  0
    0.3989   -0.2609   -2.6555 H   0  0  0  0  0  0
   -2.5319    0.5710    2.5586 H   0  0  0  0  0  0
    2.2413   -4.9609    0.6573 H   0  0  0  0  0  0
   -1.8705    3.9377    0.0966 H   0  0  0  0  0  0
    1.1292   -0.1217    5.2629 H   0  0  0  0  0  0
    1.7393   -0.7172   -3.5000 H   0  0  0  0  0  0
   -3.4477   -2.9876    1.5634 H   0  0  0  0  0  0
    2.1430   -4.9679   -0.9859 H   0  0  0  0  0  0
   -1.9094    2.9971   -1.2471 H   0  0  0  0  0  0
    1.7209    0.7240   -2.7048 H   0  0  0  0  0  0
   -2.1819   -2.3640    0.7072 H   0  0  0  0  0  0
  1  2  1  0  0  0
  1 42  1  0  0  0
  1 43  1  0  0  0
  1 44  1  0  0  0
  2  9  1  0  0  0
  2  3  1  0  0  0
  2 41  1  0  0  0
  3  4  1  0  0  0
  3 45  1  0  0  0
  3 46  1  0  0  0
  4  5  1  0  0  0
  5  6  1  0  0  0
  5  7  1  0  0  0
  5 14  1  0  0  0
  7  8  1  0  0  0
  7  9  1  0  0  0
  7 13  1  0  0  0
  9 10  1  0  0  0
  9 11  1  0  0  0
 11 12  1  0  0  0
 11 65  1  0  0  0
 11 70  1  0  0  0
 12 47  1  0  0  0
 12 48  1  0  0  0
 12 49  1  0  0  0
 13 50  1  0  0  0
 14 15  1  0  0  0
 15 16  1  0  0  0
 15 24  1  0  0  0
 15 17  1  0  0  0
 17 18  1  0  0  0
 17 19  1  0  0  0
 17 40  1  0  0  0
 19 20  1  0  0  0
 19 51  1  0  0  0
 19 52  1  0  0  0
 20 21  1  0  0  0
 20 22  1  0  0  0
 20 39  1  0  0  0
 22 23  1  0  0  0
 22 24  1  0  0  0
 22 27  1  0  0  0
 24 25  1  0  0  0
 24 26  1  0  0  0
 26 53  1  0  0  0
 27 28  1  0  0  0
 28 29  1  0  0  0
 28 35  1  0  0  0
 28 30  1  0  0  0
 30 31  1  0  0  0
 30 32  1  0  0  0
 30 38  1  0  0  0
 32 33  1  0  0  0
 32 54  1  0  0  0
 32 55  1  0  0  0
 33 34  2  0  0  0
 33 56  1  0  0  0
 34 35  1  0  0  0
 34 36  1  0  0  0
 36 37  1  0  0  0
 36 57  1  0  0  0
 36 58  1  0  0  0
 37 59  1  0  0  0
 37 66  1  0  0  0
 38 60  1  0  0  0
 38 68  1  0  0  0
 38 72  1  0  0  0
 39 61  1  0  0  0
 39 64  1  0  0  0
 39 69  1  0  0  0
 40 62  1  0  0  0
 40 67  1  0  0  0
 40 71  1  0  0  0
 41 63  1  0  0  0
M  CHG  4  11   1  38   1  39   1  40   1
M  END
> <s_m_entry_id>
106

> <s_m_entry_name>
biosynth_p1.0.sdf.99

> <s_m_Source_Path>
/Users/Sebastito/Downloads

> <s_m_Source_File>
biosynth_p1.0.sdf.gz

> <i_m_Source_File_Index>
99

> <chiral flag>
1

> <version>
0

> <i_m_ct_enhanced_stereo_status>
0

> <s_m_source_file>
ligprep_vs.maegz

> <i_m_source_file_index>
99

> <i_lp_mmshare_version>
37011

> <r_epik_Ionization_Penalty>
1.02815

> <r_epik_Ionization_Penalty_Charging>
0.339125

> <r_epik_Ionization_Penalty_Neutral>
0.68902

> <r_epik_State_Penalty>
1.12491

> <r_epik_Charging_Adjusted_Penalty>
1.46403

> <i_epik_Tot_Q>
4

> <i_epik_Tot_abs_Q>
4

> <s_epik_Chemistry_Notes>
This compound contains an acetal/aminal-like group ( X-CH(R)-Y where X, Y are N, S, or O) that may be acid/base labile, releasing an aldehyde.

> <i_f3d_flags>
0

> <s_lp_Force_Field>
OPLS_2005

> <r_lp_Energy>
77.7389

> <b_lp_Chiralities_Consistent>
1

> <s_lp_Variant>
ZINC60184554-3

$$$$
ZINC60184554
                    3D
 Structure written by MMmdl.
 71 73  0  0  1  0            999 V2000
   -3.3278    3.9015    1.7351 C   0  0  0  0  0  0
   -2.6146    2.5388    1.6289 C   0  0  2  0  0  0
   -1.0913    2.6960    1.8213 C   0  0  0  0  0  0
   -0.4138    1.4580    1.6324 O   0  0  0  0  0  0
   -0.5742    0.8624    0.3811 C   0  0  2  0  0  0
   -0.2199    1.5340   -0.4030 H   0  0  0  0  0  0
   -2.0646    0.5025    0.2077 C   0  0  1  0  0  0
   -2.3351   -0.1992    0.9984 H   0  0  0  0  0  0
   -2.9278    1.7840    0.3120 C   0  0  2  0  0  0
   -3.9757    1.4767    0.3255 H   0  0  0  0  0  0
   -2.7200    2.6529   -0.8758 N   0  3  0  0  0  0
   -3.9576    3.1199   -1.5326 C   0  0  0  0  0  0
   -2.3131   -0.1147   -1.0420 O   0  0  0  0  0  0
    0.1366   -0.3328    0.3359 O   0  0  0  0  0  0
    1.5551   -0.2106    0.4010 C   0  0  2  0  0  0
    1.8660    0.8118    0.6265 H   0  0  0  0  0  0
    2.1582   -0.6448   -0.9574 C   0  0  1  0  0  0
    3.2373   -0.4927   -0.9072 H   0  0  0  0  0  0
    1.9081   -2.1406   -1.2554 C   0  0  0  0  0  0
    2.4009   -3.0481   -0.1039 C   0  0  1  0  0  0
    3.4821   -2.9317   -0.0164 H   0  0  0  0  0  0
    1.7551   -2.6500    1.2422 C   0  0  1  0  0  0
    2.1736   -3.2768    2.0318 H   0  0  0  0  0  0
    2.0868   -1.1584    1.4979 C   0  0  2  0  0  0
    3.1747   -1.0810    1.4676 H   0  0  0  0  0  0
    1.8021   -0.7198    2.8074 O   0  0  0  0  0  0
    0.3612   -2.9029    1.0664 O   0  0  0  0  0  0
   -0.4003   -3.1229    2.2118 C   0  0  2  0  0  0
    0.1741   -3.7404    2.9057 H   0  0  0  0  0  0
   -1.6679   -3.8929    1.7797 C   0  0  1  0  0  0
   -1.3399   -4.8267    1.3217 H   0  0  0  0  0  0
   -2.4785   -4.2292    3.0412 C   0  0  0  0  0  0
   -2.5706   -3.0256    3.9500 C   0  0  0  0  0  0
   -1.7533   -1.9654    3.8236 C   0  0  0  0  0  0
   -0.7425   -1.9394    2.8860 O   0  0  0  0  0  0
   -1.8407   -0.7304    4.7035 C   0  0  0  0  0  0
   -0.7236    0.1765    4.5246 N   0  0  0  0  0  0
   -2.4623   -3.1416    0.7911 N   0  0  0  0  0  0
    2.1684   -4.4737   -0.4051 N   0  3  0  0  0  0
    1.6837    0.2074   -2.0632 N   0  3  0  0  0  0
   -3.1186    1.8014    2.7250 O   0  0  0  0  0  0
   -2.9774    4.6047    0.9792 H   0  0  0  0  0  0
   -3.1491    4.3664    2.7060 H   0  0  0  0  0  0
   -4.4072    3.7966    1.6184 H   0  0  0  0  0  0
   -0.6911    3.4239    1.1137 H   0  0  0  0  0  0
   -0.8635    3.0756    2.8183 H   0  0  0  0  0  0
   -3.7092    3.7480   -2.3881 H   0  0  0  0  0  0
   -4.5732    3.7044   -0.8491 H   0  0  0  0  0  0
   -4.5452    2.2746   -1.8921 H   0  0  0  0  0  0
   -3.2053   -0.4293   -1.0511 H   0  0  0  0  0  0
    0.8441   -2.3076   -1.4320 H   0  0  0  0  0  0
    2.4152   -2.4179   -2.1808 H   0  0  0  0  0  0
    2.1619    0.1465    2.9250 H   0  0  0  0  0  0
   -3.4807   -4.5671    2.7754 H   0  0  0  0  0  0
   -2.0063   -5.0402    3.5964 H   0  0  0  0  0  0
   -3.3330   -3.0420    4.7150 H   0  0  0  0  0  0
   -2.7708   -0.2050    4.4884 H   0  0  0  0  0  0
   -1.8793   -1.0376    5.7490 H   0  0  0  0  0  0
    0.1378   -0.2945    4.7633 H   0  0  0  0  0  0
   -2.8262   -2.2880    1.2114 H   0  0  0  0  0  0
    1.1762   -4.6422   -0.4951 H   0  0  0  0  0  0
    0.6834    0.1066   -2.1624 H   0  0  0  0  0  0
   -2.6155    1.0067    2.8190 H   0  0  0  0  0  0
    2.5362   -5.0428    0.3443 H   0  0  0  0  0  0
   -2.1668    3.4527   -0.6031 H   0  0  0  0  0  0
   -0.6508    0.4501    3.5555 H   0  0  0  0  0  0
    2.1343   -0.0726   -2.9230 H   0  0  0  0  0  0
   -1.8760   -2.8594    0.0072 H   0  0  0  0  0  0
    2.6311   -4.7205   -1.2685 H   0  0  0  0  0  0
   -2.2028    2.1186   -1.5592 H   0  0  0  0  0  0
    1.9094    1.1726   -1.8688 H   0  0  0  0  0  0
  1  2  1  0  0  0
  1 42  1  0  0  0
  1 43  1  0  0  0
  1 44  1  0  0  0
  2  9  1  0  0  0
  2  3  1  0  0  0
  2 41  1  0  0  0
  3  4  1  0  0  0
  3 45  1  0  0  0
  3 46  1  0  0  0
  4  5  1  0  0  0
  5  6  1  0  0  0
  5  7  1  0  0  0
  5 14  1  0  0  0
  7  8  1  0  0  0
  7  9  1  0  0  0
  7 13  1  0  0  0
  9 10  1  0  0  0
  9 11  1  0  0  0
 11 12  1  0  0  0
 11 65  1  0  0  0
 11 70  1  0  0  0
 12 47  1  0  0  0
 12 48  1  0  0  0
 12 49  1  0  0  0
 13 50  1  0  0  0
 14 15  1  0  0  0
 15 16  1  0  0  0
 15 24  1  0  0  0
 15 17  1  0  0  0
 17 18  1  0  0  0
 17 19  1  0  0  0
 17 40  1  0  0  0
 19 20  1  0  0  0
 19 51  1  0  0  0
 19 52  1  0  0  0
 20 21  1  0  0  0
 20 22  1  0  0  0
 20 39  1  0  0  0
 22 23  1  0  0  0
 22 24  1  0  0  0
 22 27  1  0  0  0
 24 25  1  0  0  0
 24 26  1  0  0  0
 26 53  1  0  0  0
 27 28  1  0  0  0
 28 29  1  0  0  0
 28 35  1  0  0  0
 28 30  1  0  0  0
 30 31  1  0  0  0
 30 32  1  0  0  0
 30 38  1  0  0  0
 32 33  1  0  0  0
 32 54  1  0  0  0
 32 55  1  0  0  0
 33 34  2  0  0  0
 33 56  1  0  0  0
 34 35  1  0  0  0
 34 36  1  0  0  0
 36 37  1  0  0  0
 36 57  1  0  0  0
 36 58  1  0  0  0
 37 59  1  0  0  0
 37 66  1  0  0  0
 38 60  1  0  0  0
 38 68  1  0  0  0
 39 61  1  0  0  0
 39 64  1  0  0  0
 39 69  1  0  0  0
 40 62  1  0  0  0
 40 67  1  0  0  0
 40 71  1  0  0  0
 41 63  1  0  0  0
M  CHG  3  11   1  39   1  40   1
M  END
> <s_m_entry_id>
106

> <s_m_entry_name>
biosynth_p1.0.sdf.99

> <s_m_Source_Path>
/Users/Sebastito/Downloads

> <s_m_Source_File>
biosynth_p1.0.sdf.gz

> <i_m_Source_File_Index>
99

> <chiral flag>
1

> <version>
0

> <i_m_ct_enhanced_stereo_status>
0

> <s_m_source_file>
ligprep_vs.maegz

> <i_m_source_file_index>
99

> <i_lp_mmshare_version>
37011

> <r_epik_Ionization_Penalty>
2.07721

> <r_epik_Ionization_Penalty_Charging>
0.163818

> <r_epik_Ionization_Penalty_Neutral>
1.91339

> <r_epik_State_Penalty>
1.83326

> <r_epik_Charging_Adjusted_Penalty>
1.99708

> <i_epik_Tot_Q>
3

> <i_epik_Tot_abs_Q>
3

> <s_epik_Chemistry_Notes>
This compound contains an acetal/aminal-like group ( X-CH(R)-Y where X, Y are N, S, or O) that may be acid/base labile, releasing an aldehyde.

> <i_f3d_flags>
0

> <s_lp_Force_Field>
OPLS_2005

> <r_lp_Energy>
70.5874

> <b_lp_Chiralities_Consistent>
1

> <s_lp_Variant>
ZINC60184554-4

$$$$
ZINC60184554
                    3D
 Structure written by MMmdl.
 72 74  0  0  1  0            999 V2000
   -3.7833    3.0658    1.9606 C   0  0  0  0  0  0
   -2.9280    1.9094    1.4061 C   0  0  2  0  0  0
   -1.4811    1.9768    1.9295 C   0  0  0  0  0  0
   -0.7096    0.9171    1.3792 O   0  0  0  0  0  0
   -0.5827    0.9032   -0.0097 C   0  0  2  0  0  0
   -0.1166    1.8275   -0.3573 H   0  0  0  0  0  0
   -1.9869    0.7161   -0.6259 C   0  0  1  0  0  0
   -2.3682   -0.2504   -0.2965 H   0  0  0  0  0  0
   -2.9381    1.8437   -0.1408 C   0  0  2  0  0  0
   -3.9560    1.6063   -0.4575 H   0  0  0  0  0  0
   -2.5791    3.1666   -0.7182 N   0  3  0  0  0  0
   -3.3676    3.5769   -1.8986 C   0  0  0  0  0  0
   -1.9417    0.6903   -2.0389 O   0  0  0  0  0  0
    0.1739   -0.2014   -0.3963 O   0  0  0  0  0  0
    1.5845   -0.1003   -0.1946 C   0  0  2  0  0  0
    1.9151    0.9401   -0.1933 H   0  0  0  0  0  0
    2.2453   -0.8220   -1.3923 C   0  0  1  0  0  0
    3.3260   -0.6974   -1.3106 H   0  0  0  0  0  0
    1.9400   -2.3359   -1.3892 C   0  0  0  0  0  0
    2.3727   -2.9942   -0.0623 C   0  0  1  0  0  0
    3.4466   -2.8265    0.0311 H   0  0  0  0  0  0
    1.7089   -2.3127    1.1548 C   0  0  1  0  0  0
    2.1292   -2.7504    2.0624 H   0  0  0  0  0  0
    2.0446   -0.8049    1.1062 C   0  0  2  0  0  0
    3.1341   -0.7420    1.1087 H   0  0  0  0  0  0
    1.7166   -0.1144    2.2917 O   0  0  0  0  0  0
    0.3026   -2.5410    1.0399 O   0  0  0  0  0  0
   -0.3484   -2.8703    2.2278 C   0  0  2  0  0  0
    0.2780   -3.5544    2.8047 H   0  0  0  0  0  0
   -1.6641   -3.5993    1.8741 C   0  0  1  0  0  0
   -1.4217   -4.4789    1.2766 H   0  0  0  0  0  0
   -2.3342   -4.0340    3.1888 C   0  0  0  0  0  0
   -2.3024   -2.9142    4.2053 C   0  0  0  0  0  0
   -1.4946   -1.8462    4.0699 C   0  0  0  0  0  0
   -0.6004   -1.7429    3.0278 O   0  0  0  0  0  0
   -1.3857   -0.7140    5.0723 C   0  0  0  0  0  0
   -2.5775    0.1496    5.0247 N   0  3  0  0  0  0
   -2.5540   -2.7393    1.0722 N   0  3  0  0  0  0
    2.1699   -4.4512   -0.0618 N   0  0  0  0  0  0
    1.8633   -0.2039   -2.6755 N   0  3  0  0  0  0
   -3.5164    0.7381    1.9423 O   0  0  0  0  0  0
   -3.3802    4.0405    1.6844 H   0  0  0  0  0  0
   -3.8282    3.0390    3.0504 H   0  0  0  0  0  0
   -4.8077    3.0155    1.5888 H   0  0  0  0  0  0
   -1.0171    2.9296    1.6696 H   0  0  0  0  0  0
   -1.4551    1.9064    3.0173 H   0  0  0  0  0  0
   -3.0476    4.5646   -2.2305 H   0  0  0  0  0  0
   -4.4287    3.6322   -1.6533 H   0  0  0  0  0  0
   -3.2404    2.8842   -2.7297 H   0  0  0  0  0  0
   -1.6065    1.5156   -2.3541 H   0  0  0  0  0  0
    0.8767   -2.5073   -1.5635 H   0  0  0  0  0  0
    2.4649   -2.8139   -2.2176 H   0  0  0  0  0  0
    0.7763   -0.1111    2.3849 H   0  0  0  0  0  0
   -3.3649   -4.3443    3.0129 H   0  0  0  0  0  0
   -1.8138   -4.8921    3.6156 H   0  0  0  0  0  0
   -2.9498   -3.0086    5.0654 H   0  0  0  0  0  0
   -1.2738   -1.1226    6.0771 H   0  0  0  0  0  0
   -0.4990   -0.1147    4.8626 H   0  0  0  0  0  0
   -2.4773    0.8959    5.6986 H   0  0  0  0  0  0
   -2.8043   -1.9226    1.6091 H   0  0  0  0  0  0
    2.4925   -4.8585    0.8152 H   0  0  0  0  0  0
    0.8660   -0.2916   -2.8091 H   0  0  0  0  0  0
   -3.0297   -0.0079    1.6291 H   0  0  0  0  0  0
    1.1803   -4.6774   -0.1476 H   0  0  0  0  0  0
   -2.7492    3.8626   -0.0059 H   0  0  0  0  0  0
   -3.3977   -0.3945    5.2521 H   0  0  0  0  0  0
    2.3440   -0.6739   -3.4298 H   0  0  0  0  0  0
   -3.3891   -3.2547    0.8314 H   0  0  0  0  0  0
    2.1215    0.7725   -2.6742 H   0  0  0  0  0  0
   -1.5954    3.1802   -0.9444 H   0  0  0  0  0  0
   -2.6800    0.5433    4.1004 H   0  0  0  0  0  0
   -2.0750   -2.4618    0.2273 H   0  0  0  0  0  0
  1  2  1  0  0  0
  1 42  1  0  0  0
  1 43  1  0  0  0
  1 44  1  0  0  0
  2  9  1  0  0  0
  2  3  1  0  0  0
  2 41  1  0  0  0
  3  4  1  0  0  0
  3 45  1  0  0  0
  3 46  1  0  0  0
  4  5  1  0  0  0
  5  6  1  0  0  0
  5  7  1  0  0  0
  5 14  1  0  0  0
  7  8  1  0  0  0
  7  9  1  0  0  0
  7 13  1  0  0  0
  9 10  1  0  0  0
  9 11  1  0  0  0
 11 12  1  0  0  0
 11 65  1  0  0  0
 11 70  1  0  0  0
 12 47  1  0  0  0
 12 48  1  0  0  0
 12 49  1  0  0  0
 13 50  1  0  0  0
 14 15  1  0  0  0
 15 16  1  0  0  0
 15 24  1  0  0  0
 15 17  1  0  0  0
 17 18  1  0  0  0
 17 19  1  0  0  0
 17 40  1  0  0  0
 19 20  1  0  0  0
 19 51  1  0  0  0
 19 52  1  0  0  0
 20 21  1  0  0  0
 20 22  1  0  0  0
 20 39  1  0  0  0
 22 23  1  0  0  0
 22 24  1  0  0  0
 22 27  1  0  0  0
 24 25  1  0  0  0
 24 26  1  0  0  0
 26 53  1  0  0  0
 27 28  1  0  0  0
 28 29  1  0  0  0
 28 35  1  0  0  0
 28 30  1  0  0  0
 30 31  1  0  0  0
 30 32  1  0  0  0
 30 38  1  0  0  0
 32 33  1  0  0  0
 32 54  1  0  0  0
 32 55  1  0  0  0
 33 34  2  0  0  0
 33 56  1  0  0  0
 34 35  1  0  0  0
 34 36  1  0  0  0
 36 37  1  0  0  0
 36 57  1  0  0  0
 36 58  1  0  0  0
 37 59  1  0  0  0
 37 66  1  0  0  0
 37 71  1  0  0  0
 38 60  1  0  0  0
 38 68  1  0  0  0
 38 72  1  0  0  0
 39 61  1  0  0  0
 39 64  1  0  0  0
 40 62  1  0  0  0
 40 67  1  0  0  0
 40 69  1  0  0  0
 41 63  1  0  0  0
M  CHG  4  11   1  37   1  38   1  40   1
M  END
> <s_m_entry_id>
106

> <s_m_entry_name>
biosynth_p1.0.sdf.99

> <s_m_Source_Path>
/Users/Sebastito/Downloads

> <s_m_Source_File>
biosynth_p1.0.sdf.gz

> <i_m_Source_File_Index>
99

> <chiral flag>
1

> <version>
0

> <i_m_ct_enhanced_stereo_status>
0

> <s_m_source_file>
ligprep_vs.maegz

> <i_m_source_file_index>
99

> <i_lp_mmshare_version>
37011

> <r_epik_Ionization_Penalty>
1.85001

> <r_epik_Ionization_Penalty_Charging>
0.58264

> <r_epik_Ionization_Penalty_Neutral>
1.26737

> <r_epik_State_Penalty>
1.93692

> <r_epik_Charging_Adjusted_Penalty>
2.51956

> <i_epik_Tot_Q>
4

> <i_epik_Tot_abs_Q>
4

> <s_epik_Chemistry_Notes>
This compound contains an acetal/aminal-like group ( X-CH(R)-Y where X, Y are N, S, or O) that may be acid/base labile, releasing an aldehyde.

> <i_f3d_flags>
0

> <s_lp_Force_Field>
OPLS_2005

> <r_lp_Energy>
82.3742

> <b_lp_Chiralities_Consistent>
1

> <s_lp_Variant>
ZINC60184554-5

$$$$
ZINC60184554
                    3D
 Structure written by MMmdl.
 72 74  0  0  1  0            999 V2000
   -3.5912    3.8928    1.4452 C   0  0  0  0  0  0
   -2.8751    2.5317    1.3400 C   0  0  2  0  0  0
   -1.3971    2.6420    1.7715 C   0  0  0  0  0  0
   -0.7131    1.4058    1.5896 O   0  0  0  0  0  0
   -0.6955    0.9079    0.2850 C   0  0  2  0  0  0
   -0.2310    1.6298   -0.3903 H   0  0  0  0  0  0
   -2.1483    0.5992   -0.1309 C   0  0  1  0  0  0
   -2.5507   -0.1342    0.5677 H   0  0  0  0  0  0
   -2.9867    1.8997   -0.0696 C   0  0  2  0  0  0
   -4.0320    1.6375   -0.2477 H   0  0  0  0  0  0
   -2.5621    2.8612   -1.1211 N   0  3  0  0  0  0
   -3.6281    3.2644   -2.0591 C   0  0  0  0  0  0
   -2.2275    0.0465   -1.4315 O   0  0  0  0  0  0
    0.0102   -0.2909    0.2654 O   0  0  0  0  0  0
    1.4269   -0.1333    0.3309 C   0  0  2  0  0  0
    1.7172    0.8953    0.5580 H   0  0  0  0  0  0
    2.0351   -0.5505   -1.0291 C   0  0  1  0  0  0
    3.1127   -0.4061   -0.9405 H   0  0  0  0  0  0
    1.8179   -2.0516   -1.3199 C   0  0  0  0  0  0
    2.3590   -2.9357   -0.1734 C   0  0  1  0  0  0
    3.4346   -2.7692   -0.0987 H   0  0  0  0  0  0
    1.7148   -2.5631    1.1816 C   0  0  1  0  0  0
    2.1754   -3.1670    1.9658 H   0  0  0  0  0  0
    1.9909   -1.0576    1.4296 C   0  0  2  0  0  0
    3.0752   -0.9390    1.3988 H   0  0  0  0  0  0
    1.6853   -0.6097    2.7322 O   0  0  0  0  0  0
    0.3223   -2.8604    1.0449 O   0  0  0  0  0  0
   -0.3553   -3.2256    2.2069 C   0  0  2  0  0  0
    0.2392   -3.9694    2.7419 H   0  0  0  0  0  0
   -1.7056   -3.8547    1.7909 C   0  0  1  0  0  0
   -1.5038   -4.7151    1.1519 H   0  0  0  0  0  0
   -2.4369   -4.3150    3.0636 C   0  0  0  0  0  0
   -2.3644   -3.2563    4.1411 C   0  0  0  0  0  0
   -1.4801   -2.2441    4.0894 C   0  0  0  0  0  0
   -0.5617   -2.1385    3.0709 O   0  0  0  0  0  0
   -1.3191   -1.1745    5.1518 C   0  0  0  0  0  0
   -1.7590    0.1381    4.6520 N   0  3  0  0  0  0
   -2.5214   -2.9007    1.0154 N   0  3  0  0  0  0
    2.1988   -4.3707   -0.4750 N   0  3  0  0  0  0
    1.5805    0.3087   -2.1335 N   0  0  0  0  0  0
   -3.5375    1.7059    2.2803 O   0  0  0  0  0  0
   -3.1242    4.6487    0.8132 H   0  0  0  0  0  0
   -3.5672    4.2754    2.4666 H   0  0  0  0  0  0
   -4.6381    3.8154    1.1486 H   0  0  0  0  0  0
   -0.8861    3.4136    1.1932 H   0  0  0  0  0  0
   -1.3195    2.9385    2.8183 H   0  0  0  0  0  0
   -3.2324    3.9680   -2.7917 H   0  0  0  0  0  0
   -4.4489    3.7492   -1.5295 H   0  0  0  0  0  0
   -4.0202    2.3991   -2.5947 H   0  0  0  0  0  0
   -1.8348    0.6453   -2.0483 H   0  0  0  0  0  0
    0.7570   -2.2497   -1.4811 H   0  0  0  0  0  0
    2.3210   -2.3162   -2.2512 H   0  0  0  0  0  0
    0.7525   -0.6826    2.8606 H   0  0  0  0  0  0
   -3.4797   -4.5496    2.8461 H   0  0  0  0  0  0
   -1.9822   -5.2258    3.4551 H   0  0  0  0  0  0
   -3.0411   -3.3551    4.9778 H   0  0  0  0  0  0
   -1.8943   -1.4337    6.0414 H   0  0  0  0  0  0
   -0.2713   -1.1138    5.4477 H   0  0  0  0  0  0
   -1.6214    0.8310    5.3747 H   0  0  0  0  0  0
   -2.7312   -2.0952    1.5860 H   0  0  0  0  0  0
    1.2182   -4.5942   -0.5638 H   0  0  0  0  0  0
    2.0872    0.0835   -2.9893 H   0  0  0  0  0  0
   -3.1578    0.8424    2.2409 H   0  0  0  0  0  0
    2.6049   -4.9210    0.2686 H   0  0  0  0  0  0
   -2.2054    3.6916   -0.6698 H   0  0  0  0  0  0
   -2.7394    0.0993    4.4126 H   0  0  0  0  0  0
    0.5951    0.1420   -2.3301 H   0  0  0  0  0  0
   -3.3828   -3.3469    0.7326 H   0  0  0  0  0  0
    2.6707   -4.5864   -1.3421 H   0  0  0  0  0  0
   -1.8150    2.4444   -1.6570 H   0  0  0  0  0  0
   -1.2167    0.3933    3.8393 H   0  0  0  0  0  0
   -2.0096   -2.6098    0.1943 H   0  0  0  0  0  0
  1  2  1  0  0  0
  1 42  1  0  0  0
  1 43  1  0  0  0
  1 44  1  0  0  0
  2  9  1  0  0  0
  2  3  1  0  0  0
  2 41  1  0  0  0
  3  4  1  0  0  0
  3 45  1  0  0  0
  3 46  1  0  0  0
  4  5  1  0  0  0
  5  6  1  0  0  0
  5  7  1  0  0  0
  5 14  1  0  0  0
  7  8  1  0  0  0
  7  9  1  0  0  0
  7 13  1  0  0  0
  9 10  1  0  0  0
  9 11  1  0  0  0
 11 12  1  0  0  0
 11 65  1  0  0  0
 11 70  1  0  0  0
 12 47  1  0  0  0
 12 48  1  0  0  0
 12 49  1  0  0  0
 13 50  1  0  0  0
 14 15  1  0  0  0
 15 16  1  0  0  0
 15 24  1  0  0  0
 15 17  1  0  0  0
 17 18  1  0  0  0
 17 19  1  0  0  0
 17 40  1  0  0  0
 19 20  1  0  0  0
 19 51  1  0  0  0
 19 52  1  0  0  0
 20 21  1  0  0  0
 20 22  1  0  0  0
 20 39  1  0  0  0
 22 23  1  0  0  0
 22 24  1  0  0  0
 22 27  1  0  0  0
 24 25  1  0  0  0
 24 26  1  0  0  0
 26 53  1  0  0  0
 27 28  1  0  0  0
 28 29  1  0  0  0
 28 35  1  0  0  0
 28 30  1  0  0  0
 30 31  1  0  0  0
 30 32  1  0  0  0
 30 38  1  0  0  0
 32 33  1  0  0  0
 32 54  1  0  0  0
 32 55  1  0  0  0
 33 34  2  0  0  0
 33 56  1  0  0  0
 34 35  1  0  0  0
 34 36  1  0  0  0
 36 37  1  0  0  0
 36 57  1  0  0  0
 36 58  1  0  0  0
 37 59  1  0  0  0
 37 66  1  0  0  0
 37 71  1  0  0  0
 38 60  1  0  0  0
 38 68  1  0  0  0
 38 72  1  0  0  0
 39 61  1  0  0  0
 39 64  1  0  0  0
 39 69  1  0  0  0
 40 62  1  0  0  0
 40 67  1  0  0  0
 41 63  1  0  0  0
M  CHG  4  11   1  37   1  38   1  39   1
M  END
> <s_m_entry_id>
106

> <s_m_entry_name>
biosynth_p1.0.sdf.99

> <s_m_Source_Path>
/Users/Sebastito/Downloads

> <s_m_Source_File>
biosynth_p1.0.sdf.gz

> <i_m_Source_File_Index>
99

> <chiral flag>
1

> <version>
0

> <i_m_ct_enhanced_stereo_status>
0

> <s_m_source_file>
ligprep_vs.maegz

> <i_m_source_file_index>
99

> <i_lp_mmshare_version>
37011

> <r_epik_Ionization_Penalty>
1.95127

> <r_epik_Ionization_Penalty_Charging>
0.631188

> <r_epik_Ionization_Penalty_Neutral>
1.32008

> <r_epik_State_Penalty>
2.00464

> <r_epik_Charging_Adjusted_Penalty>
2.63583

> <i_epik_Tot_Q>
4

> <i_epik_Tot_abs_Q>
4

> <s_epik_Chemistry_Notes>
This compound contains an acetal/aminal-like group ( X-CH(R)-Y where X, Y are N, S, or O) that may be acid/base labile, releasing an aldehyde.

> <i_f3d_flags>
0

> <s_lp_Force_Field>
OPLS_2005

> <r_lp_Energy>
82.7188

> <b_lp_Chiralities_Consistent>
1

> <s_lp_Variant>
ZINC60184554-6

$$$$
ZINC60184554
                    3D
 Structure written by MMmdl.
 71 73  0  0  1  0            999 V2000
   -2.9868    4.5839    1.3897 C   0  0  0  0  0  0
   -2.4109    3.1544    1.3664 C   0  0  2  0  0  0
   -0.8807    3.1674    1.5651 C   0  0  0  0  0  0
   -0.3376    1.8548    1.4725 O   0  0  0  0  0  0
   -0.5568    1.1885    0.2658 C   0  0  2  0  0  0
   -0.1255    1.7588   -0.5593 H   0  0  0  0  0  0
   -2.0760    0.9891    0.0841 C   0  0  1  0  0  0
   -2.4421    0.3799    0.9100 H   0  0  0  0  0  0
   -2.7871    2.3634    0.0877 C   0  0  2  0  0  0
   -3.8636    2.1794    0.0918 H   0  0  0  0  0  0
   -2.4547    3.1233   -1.1456 N   0  3  0  0  0  0
   -3.6126    3.7040   -1.8541 C   0  0  0  0  0  0
   -2.3768    0.3263   -1.1299 O   0  0  0  0  0  0
    0.0185   -0.0769    0.3297 O   0  0  0  0  0  0
    1.4419   -0.0864    0.2464 C   0  0  2  0  0  0
    1.8677    0.9131    0.3626 H   0  0  0  0  0  0
    1.8511   -0.6739   -1.1238 C   0  0  1  0  0  0
    2.9416   -0.6978   -1.1385 H   0  0  0  0  0  0
    1.3781   -2.1345   -1.2730 C   0  0  0  0  0  0
    1.9247   -3.0214   -0.1333 C   0  0  1  0  0  0
    3.0134   -3.0260   -0.2040 H   0  0  0  0  0  0
    1.5360   -2.4734    1.2593 C   0  0  1  0  0  0
    2.0409   -3.0693    2.0227 H   0  0  0  0  0  0
    2.0000   -0.9989    1.3596 C   0  0  2  0  0  0
    3.0839   -1.0103    1.2347 H   0  0  0  0  0  0
    1.8330   -0.4390    2.6449 O   0  0  0  0  0  0
    0.1168   -2.5777    1.3644 O   0  0  0  0  0  0
   -0.3568   -3.1021    2.5655 C   0  0  2  0  0  0
    0.1376   -4.0613    2.7347 H   0  0  0  0  0  0
   -1.8770   -3.3366    2.4229 C   0  0  1  0  0  0
   -2.0215   -4.0399    1.6022 H   0  0  0  0  0  0
   -2.3868   -3.9872    3.7199 C   0  0  0  0  0  0
   -1.8327   -3.2676    4.9280 C   0  0  0  0  0  0
   -0.7583   -2.4624    4.8477 C   0  0  0  0  0  0
   -0.0721   -2.2821    3.6692 O   0  0  0  0  0  0
   -0.1808   -1.6674    6.0001 C   0  0  0  0  0  0
    1.1609   -2.1649    6.3462 N   0  3  0  0  0  0
   -2.6015   -2.0944    2.1044 N   0  0  0  0  0  0
    1.5003   -4.4241   -0.2989 N   0  3  0  0  0  0
    1.4334    0.1734   -2.2512 N   0  0  0  0  0  0
   -2.9866    2.5231    2.4951 O   0  0  0  0  0  0
   -2.5682    5.2032    0.5961 H   0  0  0  0  0  0
   -2.7642    5.0854    2.3326 H   0  0  0  0  0  0
   -4.0710    4.5782    1.2706 H   0  0  0  0  0  0
   -0.4031    3.7974    0.8131 H   0  0  0  0  0  0
   -0.6183    3.5912    2.5351 H   0  0  0  0  0  0
   -3.2736    4.2441   -2.7381 H   0  0  0  0  0  0
   -4.1591    4.4006   -1.2188 H   0  0  0  0  0  0
   -4.2973    2.9195   -2.1782 H   0  0  0  0  0  0
   -1.9981   -0.5395   -1.1005 H   0  0  0  0  0  0
    0.2878   -2.1747   -1.2934 H   0  0  0  0  0  0
    1.7156   -2.5281   -2.2329 H   0  0  0  0  0  0
    0.9071   -0.3287    2.8017 H   0  0  0  0  0  0
   -3.4771   -3.9729    3.7522 H   0  0  0  0  0  0
   -2.0812   -5.0327    3.7732 H   0  0  0  0  0  0
   -2.3441   -3.4153    5.8682 H   0  0  0  0  0  0
   -0.1167   -0.6157    5.7193 H   0  0  0  0  0  0
   -0.8304   -1.7359    6.8734 H   0  0  0  0  0  0
    1.5375   -1.6178    7.1074 H   0  0  0  0  0  0
   -2.5210   -1.4294    2.8724 H   0  0  0  0  0  0
    0.4938   -4.4814   -0.2372 H   0  0  0  0  0  0
    0.4173    0.2355   -2.2940 H   0  0  0  0  0  0
   -2.7582    3.0182    3.2674 H   0  0  0  0  0  0
    1.9156   -4.9941    0.4243 H   0  0  0  0  0  0
   -1.7996    3.8560   -0.9140 H   0  0  0  0  0  0
    1.7670   -2.0834    5.5424 H   0  0  0  0  0  0
    1.7852    1.1228   -2.1341 H   0  0  0  0  0  0
   -2.1935   -1.6483    1.2845 H   0  0  0  0  0  0
    1.7992   -4.7614   -1.2032 H   0  0  0  0  0  0
   -2.0077    2.4809   -1.7844 H   0  0  0  0  0  0
    1.1006   -3.1333    6.6270 H   0  0  0  0  0  0
  1  2  1  0  0  0
  1 42  1  0  0  0
  1 43  1  0  0  0
  1 44  1  0  0  0
  2  9  1  0  0  0
  2  3  1  0  0  0
  2 41  1  0  0  0
  3  4  1  0  0  0
  3 45  1  0  0  0
  3 46  1  0  0  0
  4  5  1  0  0  0
  5  6  1  0  0  0
  5  7  1  0  0  0
  5 14  1  0  0  0
  7  8  1  0  0  0
  7  9  1  0  0  0
  7 13  1  0  0  0
  9 10  1  0  0  0
  9 11  1  0  0  0
 11 12  1  0  0  0
 11 65  1  0  0  0
 11 70  1  0  0  0
 12 47  1  0  0  0
 12 48  1  0  0  0
 12 49  1  0  0  0
 13 50  1  0  0  0
 14 15  1  0  0  0
 15 16  1  0  0  0
 15 24  1  0  0  0
 15 17  1  0  0  0
 17 18  1  0  0  0
 17 19  1  0  0  0
 17 40  1  0  0  0
 19 20  1  0  0  0
 19 51  1  0  0  0
 19 52  1  0  0  0
 20 21  1  0  0  0
 20 22  1  0  0  0
 20 39  1  0  0  0
 22 23  1  0  0  0
 22 24  1  0  0  0
 22 27  1  0  0  0
 24 25  1  0  0  0
 24 26  1  0  0  0
 26 53  1  0  0  0
 27 28  1  0  0  0
 28 29  1  0  0  0
 28 35  1  0  0  0
 28 30  1  0  0  0
 30 31  1  0  0  0
 30 32  1  0  0  0
 30 38  1  0  0  0
 32 33  1  0  0  0
 32 54  1  0  0  0
 32 55  1  0  0  0
 33 34  2  0  0  0
 33 56  1  0  0  0
 34 35  1  0  0  0
 34 36  1  0  0  0
 36 37  1  0  0  0
 36 57  1  0  0  0
 36 58  1  0  0  0
 37 59  1  0  0  0
 37 66  1  0  0  0
 37 71  1  0  0  0
 38 60  1  0  0  0
 38 68  1  0  0  0
 39 61  1  0  0  0
 39 64  1  0  0  0
 39 69  1  0  0  0
 40 62  1  0  0  0
 40 67  1  0  0  0
 41 63  1  0  0  0
M  CHG  3  11   1  37   1  39   1
M  END
> <s_m_entry_id>
106

> <s_m_entry_name>
biosynth_p1.0.sdf.99

> <s_m_Source_Path>
/Users/Sebastito/Downloads

> <s_m_Source_File>
biosynth_p1.0.sdf.gz

> <i_m_Source_File_Index>
99

> <chiral flag>
1

> <version>
0

> <i_m_ct_enhanced_stereo_status>
0

> <s_m_source_file>
ligprep_vs.maegz

> <i_m_source_file_index>
99

> <i_lp_mmshare_version>
37011

> <r_epik_Ionization_Penalty>
1.98152

> <r_epik_Ionization_Penalty_Charging>
0.157133

> <r_epik_Ionization_Penalty_Neutral>
1.82439

> <r_epik_State_Penalty>
2.16151

> <r_epik_Charging_Adjusted_Penalty>
2.31864

> <i_epik_Tot_Q>
3

> <i_epik_Tot_abs_Q>
3

> <s_epik_Chemistry_Notes>
This compound contains an acetal/aminal-like group ( X-CH(R)-Y where X, Y are N, S, or O) that may be acid/base labile, releasing an aldehyde.

> <i_f3d_flags>
0

> <s_lp_Force_Field>
OPLS_2005

> <r_lp_Energy>
68.5113

> <b_lp_Chiralities_Consistent>
1

> <s_lp_Variant>
ZINC60184554-7

$$$$
ZINC60184554
                    3D
 Structure written by MMmdl.
 71 73  0  0  1  0            999 V2000
   -3.3353    3.3749    2.3312 C   0  0  0  0  0  0
   -2.7395    2.1384    1.6297 C   0  0  2  0  0  0
   -1.3087    1.8523    2.1326 C   0  0  0  0  0  0
   -0.7089    0.7732    1.4234 O   0  0  0  0  0  0
   -0.5989    0.9352    0.0429 C   0  0  2  0  0  0
   -0.0222    1.8345   -0.1816 H   0  0  0  0  0  0
   -2.0246    1.0287   -0.5433 C   0  0  1  0  0  0
   -2.5526    0.1020   -0.3156 H   0  0  0  0  0  0
   -2.7672    2.2352    0.0833 C   0  0  2  0  0  0
   -3.8059    2.1937   -0.2516 H   0  0  0  0  0  0
   -2.1823    3.5151   -0.3954 N   0  3  0  0  0  0
   -3.1607    4.5011   -0.8962 C   0  0  0  0  0  0
   -2.0061    1.1938   -1.9489 O   0  0  0  0  0  0
    0.0040   -0.1905   -0.5201 O   0  0  0  0  0  0
    1.4341   -0.1964   -0.5481 C   0  0  2  0  0  0
    1.8226    0.8033   -0.7510 H   0  0  0  0  0  0
    1.8416   -1.1134   -1.7253 C   0  0  1  0  0  0
    2.9254   -1.0598   -1.8389 H   0  0  0  0  0  0
    1.4657   -2.5886   -1.4647 C   0  0  0  0  0  0
    2.0874   -3.1036   -0.1494 C   0  0  1  0  0  0
    3.1685   -3.0079   -0.2584 H   0  0  0  0  0  0
    1.6809   -2.2224    1.0513 C   0  0  1  0  0  0
    2.2136   -2.5679    1.9400 H   0  0  0  0  0  0
    2.0756   -0.7609    0.7447 C   0  0  2  0  0  0
    3.1513   -0.7741    0.5632 H   0  0  0  0  0  0
    1.9800    0.0970    1.8615 O   0  0  0  0  0  0
    0.2667   -2.3337    1.1870 O   0  0  0  0  0  0
   -0.1759   -2.5988    2.4791 C   0  0  2  0  0  0
    0.3822   -3.4556    2.8634 H   0  0  0  0  0  0
   -1.6732   -2.9724    2.4119 C   0  0  1  0  0  0
   -1.7533   -3.8704    1.7983 H   0  0  0  0  0  0
   -2.1530   -3.3138    3.8325 C   0  0  0  0  0  0
   -1.6496   -2.2946    4.8283 C   0  0  0  0  0  0
   -0.6271   -1.4672    4.5488 C   0  0  0  0  0  0
    0.0480   -1.5231    3.3529 O   0  0  0  0  0  0
   -0.0897   -0.4042    5.4824 C   0  0  0  0  0  0
    1.2625   -0.7659    5.9379 N   0  3  0  0  0  0
   -2.4849   -1.9152    1.7888 N   0  0  0  0  0  0
    1.8075   -4.5277    0.0902 N   0  0  0  0  0  0
    1.2782   -0.6357   -3.0015 N   0  3  0  0  0  0
   -3.5699    1.0709    2.0423 O   0  0  0  0  0  0
   -2.7472    4.2730    2.1410 H   0  0  0  0  0  0
   -3.3654    3.2402    3.4134 H   0  0  0  0  0  0
   -4.3558    3.5687    1.9981 H   0  0  0  0  0  0
   -0.6799    2.7362    2.0163 H   0  0  0  0  0  0
   -1.3151    1.6151    3.1966 H   0  0  0  0  0  0
   -2.6432    5.4016   -1.2263 H   0  0  0  0  0  0
   -3.8727    4.7830   -0.1208 H   0  0  0  0  0  0
   -3.7136    4.0976   -1.7451 H   0  0  0  0  0  0
   -1.7134    0.3848   -2.3399 H   0  0  0  0  0  0
    0.3807   -2.7010   -1.4344 H   0  0  0  0  0  0
    1.8124   -3.2049   -2.2953 H   0  0  0  0  0  0
    1.0693    0.1528    2.1112 H   0  0  0  0  0  0
   -3.2421   -3.3577    3.8702 H   0  0  0  0  0  0
   -1.7850   -4.2948    4.1346 H   0  0  0  0  0  0
   -2.1476   -2.2527    5.7860 H   0  0  0  0  0  0
   -0.0504    0.5531    4.9629 H   0  0  0  0  0  0
   -0.7465   -0.2857    6.3449 H   0  0  0  0  0  0
    1.6182   -0.0451    6.5494 H   0  0  0  0  0  0
   -2.1576   -1.7349    0.8410 H   0  0  0  0  0  0
    2.1322   -5.0951   -0.6917 H   0  0  0  0  0  0
    0.2699   -0.6631   -2.9545 H   0  0  0  0  0  0
   -3.5249    0.9950    2.9834 H   0  0  0  0  0  0
    2.2970   -4.8560    0.9217 H   0  0  0  0  0  0
   -1.6432    3.9296    0.3510 H   0  0  0  0  0  0
    1.8721   -0.8599    5.1381 H   0  0  0  0  0  0
    1.5947   -1.2321   -3.7530 H   0  0  0  0  0  0
   -3.4578   -2.2103    1.7175 H   0  0  0  0  0  0
    1.5835    0.3113   -3.1748 H   0  0  0  0  0  0
   -1.5607    3.2968   -1.1610 H   0  0  0  0  0  0
    1.2267   -1.6432    6.4373 H   0  0  0  0  0  0
  1  2  1  0  0  0
  1 42  1  0  0  0
  1 43  1  0  0  0
  1 44  1  0  0  0
  2  9  1  0  0  0
  2  3  1  0  0  0
  2 41  1  0  0  0
  3  4  1  0  0  0
  3 45  1  0  0  0
  3 46  1  0  0  0
  4  5  1  0  0  0
  5  6  1  0  0  0
  5  7  1  0  0  0
  5 14  1  0  0  0
  7  8  1  0  0  0
  7  9  1  0  0  0
  7 13  1  0  0  0
  9 10  1  0  0  0
  9 11  1  0  0  0
 11 12  1  0  0  0
 11 65  1  0  0  0
 11 70  1  0  0  0
 12 47  1  0  0  0
 12 48  1  0  0  0
 12 49  1  0  0  0
 13 50  1  0  0  0
 14 15  1  0  0  0
 15 16  1  0  0  0
 15 24  1  0  0  0
 15 17  1  0  0  0
 17 18  1  0  0  0
 17 19  1  0  0  0
 17 40  1  0  0  0
 19 20  1  0  0  0
 19 51  1  0  0  0
 19 52  1  0  0  0
 20 21  1  0  0  0
 20 22  1  0  0  0
 20 39  1  0  0  0
 22 23  1  0  0  0
 22 24  1  0  0  0
 22 27  1  0  0  0
 24 25  1  0  0  0
 24 26  1  0  0  0
 26 53  1  0  0  0
 27 28  1  0  0  0
 28 29  1  0  0  0
 28 35  1  0  0  0
 28 30  1  0  0  0
 30 31  1  0  0  0
 30 32  1  0  0  0
 30 38  1  0  0  0
 32 33  1  0  0  0
 32 54  1  0  0  0
 32 55  1  0  0  0
 33 34  2  0  0  0
 33 56  1  0  0  0
 34 35  1  0  0  0
 34 36  1  0  0  0
 36 37  1  0  0  0
 36 57  1  0  0  0
 36 58  1  0  0  0
 37 59  1  0  0  0
 37 66  1  0  0  0
 37 71  1  0  0  0
 38 60  1  0  0  0
 38 68  1  0  0  0
 39 61  1  0  0  0
 39 64  1  0  0  0
 40 62  1  0  0  0
 40 67  1  0  0  0
 40 69  1  0  0  0
 41 63  1  0  0  0
M  CHG  3  11   1  37   1  40   1
M  END
> <s_m_entry_id>
106

> <s_m_entry_name>
biosynth_p1.0.sdf.99

> <s_m_Source_Path>
/Users/Sebastito/Downloads

> <s_m_Source_File>
biosynth_p1.0.sdf.gz

> <i_m_Source_File_Index>
99

> <chiral flag>
1

> <version>
0

> <i_m_ct_enhanced_stereo_status>
0

> <s_m_source_file>
ligprep_vs.maegz

> <i_m_source_file_index>
99

> <i_lp_mmshare_version>
37011

> <r_epik_Ionization_Penalty>
2.05908

> <r_epik_Ionization_Penalty_Charging>
0.155437

> <r_epik_Ionization_Penalty_Neutral>
1.90364

> <r_epik_State_Penalty>
2.19182

> <r_epik_Charging_Adjusted_Penalty>
2.34726

> <i_epik_Tot_Q>
3

> <i_epik_Tot_abs_Q>
3

> <s_epik_Chemistry_Notes>
This compound contains an acetal/aminal-like group ( X-CH(R)-Y where X, Y are N, S, or O) that may be acid/base labile, releasing an aldehyde.

> <i_f3d_flags>
0

> <s_lp_Force_Field>
OPLS_2005

> <r_lp_Energy>
65.0744

> <b_lp_Chiralities_Consistent>
1

> <s_lp_Variant>
ZINC60184554-8

$$$$
ZINC60184554
                    3D
 Structure written by MMmdl.
 72 74  0  0  1  0            999 V2000
   -3.3533    3.3010    2.3706 C   0  0  0  0  0  0
   -2.7289    2.0823    1.6652 C   0  0  2  0  0  0
   -1.3472    1.7492    2.2681 C   0  0  0  0  0  0
   -0.7278    0.6570    1.5956 O   0  0  0  0  0  0
   -0.5130    0.8372    0.2298 C   0  0  2  0  0  0
    0.0997    1.7253    0.0617 H   0  0  0  0  0  0
   -1.8846    0.9783   -0.4618 C   0  0  1  0  0  0
   -2.4544    0.0674   -0.2777 H   0  0  0  0  0  0
   -2.6378    2.2018    0.1172 C   0  0  2  0  0  0
   -3.6499    2.1770   -0.2909 H   0  0  0  0  0  0
   -1.9909    3.4508   -0.3233 N   0  0  0  0  0  0
   -2.9038    4.5556   -0.6129 C   0  0  0  0  0  0
   -1.7610    1.1291   -1.8644 O   0  0  0  0  0  0
    0.0916   -0.2996   -0.3042 O   0  0  0  0  0  0
    1.5189   -0.3207   -0.2839 C   0  0  2  0  0  0
    1.9371    0.6810   -0.3974 H   0  0  0  0  0  0
    1.9465   -1.1555   -1.5121 C   0  0  1  0  0  0
    3.0345   -1.1220   -1.5866 H   0  0  0  0  0  0
    1.5236   -2.6356   -1.3755 C   0  0  0  0  0  0
    2.0631   -3.2648   -0.0712 C   0  0  1  0  0  0
    3.1530   -3.2547   -0.1202 H   0  0  0  0  0  0
    1.6296   -2.4602    1.1766 C   0  0  1  0  0  0
    2.1146   -2.8906    2.0553 H   0  0  0  0  0  0
    2.0871   -0.9934    0.9886 C   0  0  2  0  0  0
    3.1679   -1.0355    0.8447 H   0  0  0  0  0  0
    1.9865   -0.2017    2.1535 O   0  0  0  0  0  0
    0.2074   -2.5562    1.2579 O   0  0  0  0  0  0
   -0.3073   -2.7791    2.5340 C   0  0  2  0  0  0
    0.1926   -3.6507    2.9620 H   0  0  0  0  0  0
   -1.8188   -3.0736    2.3941 C   0  0  1  0  0  0
   -1.9427   -3.9513    1.7588 H   0  0  0  0  0  0
   -2.3861   -3.3617    3.7934 C   0  0  0  0  0  0
   -1.9084   -2.3237    4.7821 C   0  0  0  0  0  0
   -0.8266   -1.5607    4.5451 C   0  0  0  0  0  0
   -0.0821   -1.6928    3.3959 O   0  0  0  0  0  0
   -0.3134   -0.4730    5.4664 C   0  0  0  0  0  0
    0.8514   -0.9523    6.2282 N   0  3  0  0  0  0
   -2.5222   -1.9487    1.7492 N   0  3  0  0  0  0
    1.6802   -4.6855    0.0403 N   0  3  0  0  0  0
    1.4348   -0.5615   -2.7627 N   0  3  0  0  0  0
   -3.5954    1.0126    1.9961 O   0  0  0  0  0  0
   -2.7245    4.1864    2.2755 H   0  0  0  0  0  0
   -3.4770    3.1205    3.4393 H   0  0  0  0  0  0
   -4.3376    3.5374    1.9646 H   0  0  0  0  0  0
   -0.6875    2.6161    2.2068 H   0  0  0  0  0  0
   -1.4397    1.5066    3.3267 H   0  0  0  0  0  0
   -2.3457    5.4356   -0.9327 H   0  0  0  0  0  0
   -3.4991    4.8435    0.2508 H   0  0  0  0  0  0
   -3.5891    4.2918   -1.4189 H   0  0  0  0  0  0
   -2.6246    1.2554   -2.2291 H   0  0  0  0  0  0
    0.4357   -2.7159   -1.4044 H   0  0  0  0  0  0
    1.8929   -3.2006   -2.2327 H   0  0  0  0  0  0
    2.4155    0.6261    1.9950 H   0  0  0  0  0  0
   -3.4765   -3.3725    3.7704 H   0  0  0  0  0  0
   -2.0658   -4.3430    4.1454 H   0  0  0  0  0  0
   -2.4689   -2.2182    5.6998 H   0  0  0  0  0  0
   -0.0209    0.3986    4.8808 H   0  0  0  0  0  0
   -1.0977   -0.1584    6.1560 H   0  0  0  0  0  0
    1.1822   -0.2155    6.8353 H   0  0  0  0  0  0
   -2.4134   -1.1138    2.3073 H   0  0  0  0  0  0
    0.6747   -4.7659    0.0903 H   0  0  0  0  0  0
    0.4246   -0.5468   -2.7426 H   0  0  0  0  0  0
   -3.7683    1.0471    2.9249 H   0  0  0  0  0  0
    2.0917   -5.0859    0.8718 H   0  0  0  0  0  0
   -1.4503    3.2563   -1.1605 H   0  0  0  0  0  0
    1.5880   -1.2144    5.5891 H   0  0  0  0  0  0
    1.7474   -1.1067   -3.5537 H   0  0  0  0  0  0
   -3.5046   -2.1670    1.6618 H   0  0  0  0  0  0
    2.0148   -5.1896   -0.7690 H   0  0  0  0  0  0
    1.7774    0.3844   -2.8549 H   0  0  0  0  0  0
    0.5880   -1.7518    6.7866 H   0  0  0  0  0  0
   -2.1310   -1.7881    0.8323 H   0  0  0  0  0  0
  1  2  1  0  0  0
  1 42  1  0  0  0
  1 43  1  0  0  0
  1 44  1  0  0  0
  2  9  1  0  0  0
  2  3  1  0  0  0
  2 41  1  0  0  0
  3  4  1  0  0  0
  3 45  1  0  0  0
  3 46  1  0  0  0
  4  5  1  0  0  0
  5  6  1  0  0  0
  5  7  1  0  0  0
  5 14  1  0  0  0
  7  8  1  0  0  0
  7  9  1  0  0  0
  7 13  1  0  0  0
  9 10  1  0  0  0
  9 11  1  0  0  0
 11 12  1  0  0  0
 11 65  1  0  0  0
 12 47  1  0  0  0
 12 48  1  0  0  0
 12 49  1  0  0  0
 13 50  1  0  0  0
 14 15  1  0  0  0
 15 16  1  0  0  0
 15 24  1  0  0  0
 15 17  1  0  0  0
 17 18  1  0  0  0
 17 19  1  0  0  0
 17 40  1  0  0  0
 19 20  1  0  0  0
 19 51  1  0  0  0
 19 52  1  0  0  0
 20 21  1  0  0  0
 20 22  1  0  0  0
 20 39  1  0  0  0
 22 23  1  0  0  0
 22 24  1  0  0  0
 22 27  1  0  0  0
 24 25  1  0  0  0
 24 26  1  0  0  0
 26 53  1  0  0  0
 27 28  1  0  0  0
 28 29  1  0  0  0
 28 35  1  0  0  0
 28 30  1  0  0  0
 30 31  1  0  0  0
 30 32  1  0  0  0
 30 38  1  0  0  0
 32 33  1  0  0  0
 32 54  1  0  0  0
 32 55  1  0  0  0
 33 34  2  0  0  0
 33 56  1  0  0  0
 34 35  1  0  0  0
 34 36  1  0  0  0
 36 37  1  0  0  0
 36 57  1  0  0  0
 36 58  1  0  0  0
 37 59  1  0  0  0
 37 66  1  0  0  0
 37 71  1  0  0  0
 38 60  1  0  0  0
 38 68  1  0  0  0
 38 72  1  0  0  0
 39 61  1  0  0  0
 39 64  1  0  0  0
 39 69  1  0  0  0
 40 62  1  0  0  0
 40 67  1  0  0  0
 40 70  1  0  0  0
 41 63  1  0  0  0
M  CHG  4  37   1  38   1  39   1  40   1
M  END
> <s_m_entry_id>
106

> <s_m_entry_name>
biosynth_p1.0.sdf.99

> <s_m_Source_Path>
/Users/Sebastito/Downloads

> <s_m_Source_File>
biosynth_p1.0.sdf.gz

> <i_m_Source_File_Index>
99

> <chiral flag>
1

> <version>
0

> <i_m_ct_enhanced_stereo_status>
0

> <s_m_source_file>
ligprep_vs.maegz

> <i_m_source_file_index>
99

> <i_lp_mmshare_version>
37011

> <r_epik_Ionization_Penalty>
2.31594

> <r_epik_Ionization_Penalty_Charging>
0.747414

> <r_epik_Ionization_Penalty_Neutral>
1.56853

> <r_epik_State_Penalty>
2.30076

> <r_epik_Charging_Adjusted_Penalty>
3.04818

> <i_epik_Tot_Q>
4

> <i_epik_Tot_abs_Q>
4

> <s_epik_Chemistry_Notes>
This compound contains an acetal/aminal-like group ( X-CH(R)-Y where X, Y are N, S, or O) that may be acid/base labile, releasing an aldehyde.

> <i_f3d_flags>
0

> <s_lp_Force_Field>
OPLS_2005

> <r_lp_Energy>
82.5006

> <b_lp_Chiralities_Consistent>
1

> <s_lp_Variant>
ZINC60184554-9

$$$$
ZINC60184554
                    3D
 Structure written by MMmdl.
 71 73  0  0  1  0            999 V2000
   -2.8523    3.8351    2.3927 C   0  0  0  0  0  0
   -2.2725    2.4870    1.9266 C   0  0  2  0  0  0
   -0.7414    2.4559    2.1214 C   0  0  0  0  0  0
   -0.1805    1.2265    1.6741 O   0  0  0  0  0  0
   -0.3982    0.9143    0.3321 C   0  0  2  0  0  0
    0.0260    1.6878   -0.3115 H   0  0  0  0  0  0
   -1.9160    0.7628    0.1033 C   0  0  1  0  0  0
   -2.2691   -0.0433    0.7444 H   0  0  0  0  0  0
   -2.6436    2.0794    0.4729 C   0  0  2  0  0  0
   -3.7149    1.8739    0.4346 H   0  0  0  0  0  0
   -2.3365    3.1315   -0.5139 N   0  0  0  0  0  0
   -3.4399    4.0439   -0.8111 C   0  0  0  0  0  0
   -2.2262    0.4138   -1.2337 O   0  0  0  0  0  0
    0.1779   -0.3195    0.0450 O   0  0  0  0  0  0
    1.6009   -0.3266   -0.0214 C   0  0  2  0  0  0
    2.0188    0.6815    0.0229 H   0  0  0  0  0  0
    1.9853   -0.9702   -1.3733 C   0  0  1  0  0  0
    3.0702   -0.9203   -1.4763 H   0  0  0  0  0  0
    1.5681   -2.4570   -1.4439 C   0  0  0  0  0  0
    2.1300   -3.2718   -0.2560 C   0  0  1  0  0  0
    3.2188   -3.2589   -0.3218 H   0  0  0  0  0  0
    1.7171   -2.6584    1.1020 C   0  0  1  0  0  0
    2.2059   -3.2224    1.8987 H   0  0  0  0  0  0
    2.1933   -1.1833    1.1196 C   0  0  2  0  0  0
    3.2687   -1.2163    0.9380 H   0  0  0  0  0  0
    2.1426   -0.5611    2.3865 O   0  0  0  0  0  0
    0.2962   -2.7948    1.1663 O   0  0  0  0  0  0
   -0.2636   -2.8931    2.4388 C   0  0  2  0  0  0
    0.3359   -3.5890    3.0295 H   0  0  0  0  0  0
   -1.6917   -3.4666    2.2945 C   0  0  1  0  0  0
   -1.6024   -4.4462    1.8237 H   0  0  0  0  0  0
   -2.2776   -3.6602    3.7038 C   0  0  0  0  0  0
   -1.9987   -2.4545    4.5724 C   0  0  0  0  0  0
   -1.0690   -1.5389    4.2462 C   0  0  0  0  0  0
   -0.2832   -1.6710    3.1256 O   0  0  0  0  0  0
   -0.7495   -0.2996    5.0546 C   0  0  0  0  0  0
    0.6466   -0.3374    5.5184 N   0  3  0  0  0  0
   -2.5508   -2.6219    1.4474 N   0  0  0  0  0  0
    1.7342   -4.6906   -0.3439 N   0  3  0  0  0  0
    1.4305   -0.2047   -2.5057 N   0  3  0  0  0  0
   -2.8339    1.5441    2.8214 O   0  0  0  0  0  0
   -2.4158    4.6712    1.8464 H   0  0  0  0  0  0
   -2.6447    4.0102    3.4491 H   0  0  0  0  0  0
   -3.9349    3.8703    2.2645 H   0  0  0  0  0  0
   -0.2738    3.2736    1.5708 H   0  0  0  0  0  0
   -0.4798    2.6035    3.1697 H   0  0  0  0  0  0
   -3.1296    4.7897   -1.5428 H   0  0  0  0  0  0
   -3.7904    4.5776    0.0691 H   0  0  0  0  0  0
   -4.2876    3.5032   -1.2331 H   0  0  0  0  0  0
   -2.0430    1.1552   -1.7895 H   0  0  0  0  0  0
    0.4796   -2.5344   -1.4639 H   0  0  0  0  0  0
    1.9198   -2.8894   -2.3817 H   0  0  0  0  0  0
    2.5403    0.2941    2.3181 H   0  0  0  0  0  0
   -3.3531   -3.8343    3.6530 H   0  0  0  0  0  0
   -1.8373   -4.5345    4.1845 H   0  0  0  0  0  0
   -2.5824   -2.3510    5.4755 H   0  0  0  0  0  0
   -0.8956    0.5850    4.4382 H   0  0  0  0  0  0
   -1.4174   -0.2182    5.9126 H   0  0  0  0  0  0
    0.8516    0.5024    6.0410 H   0  0  0  0  0  0
   -2.1593   -2.5376    0.5105 H   0  0  0  0  0  0
    0.7282   -4.7646   -0.2864 H   0  0  0  0  0  0
    0.4213   -0.2149   -2.4574 H   0  0  0  0  0  0
   -2.5316    0.6824    2.5783 H   0  0  0  0  0  0
    2.1510   -5.2077    0.4174 H   0  0  0  0  0  0
   -2.0466    2.6938   -1.3815 H   0  0  0  0  0  0
    1.2620   -0.3965    4.7194 H   0  0  0  0  0  0
    1.7278   -0.6218   -3.3763 H   0  0  0  0  0  0
   -3.4762   -3.0379    1.3490 H   0  0  0  0  0  0
    2.0489   -5.0793   -1.2218 H   0  0  0  0  0  0
    1.7582    0.7501   -2.4646 H   0  0  0  0  0  0
    0.7836   -1.1442    6.1102 H   0  0  0  0  0  0
  1  2  1  0  0  0
  1 42  1  0  0  0
  1 43  1  0  0  0
  1 44  1  0  0  0
  2  9  1  0  0  0
  2  3  1  0  0  0
  2 41  1  0  0  0
  3  4  1  0  0  0
  3 45  1  0  0  0
  3 46  1  0  0  0
  4  5  1  0  0  0
  5  6  1  0  0  0
  5  7  1  0  0  0
  5 14  1  0  0  0
  7  8  1  0  0  0
  7  9  1  0  0  0
  7 13  1  0  0  0
  9 10  1  0  0  0
  9 11  1  0  0  0
 11 12  1  0  0  0
 11 65  1  0  0  0
 12 47  1  0  0  0
 12 48  1  0  0  0
 12 49  1  0  0  0
 13 50  1  0  0  0
 14 15  1  0  0  0
 15 16  1  0  0  0
 15 24  1  0  0  0
 15 17  1  0  0  0
 17 18  1  0  0  0
 17 19  1  0  0  0
 17 40  1  0  0  0
 19 20  1  0  0  0
 19 51  1  0  0  0
 19 52  1  0  0  0
 20 21  1  0  0  0
 20 22  1  0  0  0
 20 39  1  0  0  0
 22 23  1  0  0  0
 22 24  1  0  0  0
 22 27  1  0  0  0
 24 25  1  0  0  0
 24 26  1  0  0  0
 26 53  1  0  0  0
 27 28  1  0  0  0
 28 29  1  0  0  0
 28 35  1  0  0  0
 28 30  1  0  0  0
 30 31  1  0  0  0
 30 32  1  0  0  0
 30 38  1  0  0  0
 32 33  1  0  0  0
 32 54  1  0  0  0
 32 55  1  0  0  0
 33 34  2  0  0  0
 33 56  1  0  0  0
 34 35  1  0  0  0
 34 36  1  0  0  0
 36 37  1  0  0  0
 36 57  1  0  0  0
 36 58  1  0  0  0
 37 59  1  0  0  0
 37 66  1  0  0  0
 37 71  1  0  0  0
 38 60  1  0  0  0
 38 68  1  0  0  0
 39 61  1  0  0  0
 39 64  1  0  0  0
 39 69  1  0  0  0
 40 62  1  0  0  0
 40 67  1  0  0  0
 40 70  1  0  0  0
 41 63  1  0  0  0
M  CHG  3  37   1  39   1  40   1
M  END
> <s_m_entry_id>
106

> <s_m_entry_name>
biosynth_p1.0.sdf.99

> <s_m_Source_Path>
/Users/Sebastito/Downloads

> <s_m_Source_File>
biosynth_p1.0.sdf.gz

> <i_m_Source_File_Index>
99

> <chiral flag>
1

> <version>
0

> <i_m_ct_enhanced_stereo_status>
0

> <s_m_source_file>
ligprep_vs.maegz

> <i_m_source_file_index>
99

> <i_lp_mmshare_version>
37011

> <r_epik_Ionization_Penalty>
2.23666

> <r_epik_Ionization_Penalty_Charging>
0.231425

> <r_epik_Ionization_Penalty_Neutral>
2.00524

> <r_epik_State_Penalty>
2.4054

> <r_epik_Charging_Adjusted_Penalty>
2.63682

> <i_epik_Tot_Q>
3

> <i_epik_Tot_abs_Q>
3

> <s_epik_Chemistry_Notes>
This compound contains an acetal/aminal-like group ( X-CH(R)-Y where X, Y are N, S, or O) that may be acid/base labile, releasing an aldehyde.

> <i_f3d_flags>
0

> <s_lp_Force_Field>
OPLS_2005

> <r_lp_Energy>
73.528

> <b_lp_Chiralities_Consistent>
1

> <s_lp_Variant>
ZINC60184554-10

$$$$
ZINC60184554
                    3D
 Structure written by MMmdl.
 71 73  0  0  1  0            999 V2000
   -3.5727    3.1993    2.4639 C   0  0  0  0  0  0
   -2.9195    2.0203    1.7147 C   0  0  2  0  0  0
   -1.5244    1.6971    2.2871 C   0  0  0  0  0  0
   -0.8903    0.6682    1.5354 O   0  0  0  0  0  0
   -0.6833    0.9414    0.1840 C   0  0  2  0  0  0
   -0.0897    1.8512    0.0752 H   0  0  0  0  0  0
   -2.0636    1.0930   -0.4901 C   0  0  1  0  0  0
   -2.6048    0.1541   -0.3661 H   0  0  0  0  0  0
   -2.8421    2.2531    0.1857 C   0  0  2  0  0  0
   -3.8628    2.2671   -0.2021 H   0  0  0  0  0  0
   -2.2223    3.5724   -0.1083 N   0  3  0  0  0  0
   -2.8907    4.3628   -1.1617 C   0  0  0  0  0  0
   -1.9433    1.3456   -1.8770 O   0  0  0  0  0  0
   -0.0489   -0.1435   -0.4213 O   0  0  0  0  0  0
    1.3803   -0.1096   -0.4327 C   0  0  2  0  0  0
    1.7410    0.8997   -0.6392 H   0  0  0  0  0  0
    1.8277   -1.0199   -1.5997 C   0  0  1  0  0  0
    2.9099   -0.9295   -1.7056 H   0  0  0  0  0  0
    1.5014   -2.5049   -1.3307 C   0  0  0  0  0  0
    2.1273   -2.9862   -0.0042 C   0  0  1  0  0  0
    3.2048   -2.8450   -0.0984 H   0  0  0  0  0  0
    1.6656   -2.1161    1.1851 C   0  0  1  0  0  0
    2.1934   -2.4364    2.0861 H   0  0  0  0  0  0
    2.0186   -0.6442    0.8735 C   0  0  2  0  0  0
    3.0966   -0.6258    0.7057 H   0  0  0  0  0  0
    1.8875    0.2241    1.9786 O   0  0  0  0  0  0
    0.2538   -2.2856    1.2905 O   0  0  0  0  0  0
   -0.2104   -2.5824    2.5688 C   0  0  2  0  0  0
    0.3993   -3.3837    2.9921 H   0  0  0  0  0  0
   -1.6692   -3.0727    2.4406 C   0  0  1  0  0  0
   -1.6810   -3.9593    1.8055 H   0  0  0  0  0  0
   -2.1811   -3.4314    3.8444 C   0  0  0  0  0  0
   -1.8413   -2.3335    4.8244 C   0  0  0  0  0  0
   -0.8810   -1.4263    4.5749 C   0  0  0  0  0  0
   -0.1217   -1.4731    3.4257 O   0  0  0  0  0  0
   -0.5232   -0.2917    5.5191 C   0  0  0  0  0  0
    0.7078    0.3809    5.1499 N   0  0  0  0  0  0
   -2.5156   -2.0476    1.8022 N   0  3  0  0  0  0
    1.9065   -4.4201    0.2375 N   0  0  0  0  0  0
    1.2564   -0.5697   -2.8829 N   0  3  0  0  0  0
   -3.7644    0.9176    1.9873 O   0  0  0  0  0  0
   -2.9707    4.1062    2.4014 H   0  0  0  0  0  0
   -3.6960    2.9757    3.5245 H   0  0  0  0  0  0
   -4.5596    3.4299    2.0603 H   0  0  0  0  0  0
   -0.8878    2.5832    2.2752 H   0  0  0  0  0  0
   -1.5978    1.3840    3.3282 H   0  0  0  0  0  0
   -2.3664    5.3081   -1.3014 H   0  0  0  0  0  0
   -3.9207    4.5857   -0.8812 H   0  0  0  0  0  0
   -2.8962    3.8351   -2.1152 H   0  0  0  0  0  0
   -2.8069    1.3379   -2.2626 H   0  0  0  0  0  0
    0.4211   -2.6562   -1.3120 H   0  0  0  0  0  0
    1.8797   -3.1147   -2.1524 H   0  0  0  0  0  0
    2.4206   -0.1064    2.6861 H   0  0  0  0  0  0
   -3.2599   -3.5911    3.8312 H   0  0  0  0  0  0
   -1.7256   -4.3577    4.1967 H   0  0  0  0  0  0
   -2.4010   -2.3010    5.7480 H   0  0  0  0  0  0
   -1.3370    0.4334    5.5297 H   0  0  0  0  0  0
   -0.4230   -0.6818    6.5324 H   0  0  0  0  0  0
    1.4801   -0.2689    5.1904 H   0  0  0  0  0  0
   -2.5050   -1.2080    2.3636 H   0  0  0  0  0  0
    2.3522   -4.7100    1.1072 H   0  0  0  0  0  0
    0.2486   -0.6225   -2.8403 H   0  0  0  0  0  0
   -3.8806    0.8536    2.9237 H   0  0  0  0  0  0
    0.9118   -4.6186    0.3348 H   0  0  0  0  0  0
   -2.2568    4.1224    0.7384 H   0  0  0  0  0  0
    0.6497    0.7167    4.1992 H   0  0  0  0  0  0
    1.5925   -1.1630   -3.6284 H   0  0  0  0  0  0
   -3.4619   -2.3912    1.7227 H   0  0  0  0  0  0
    1.5355    0.3840   -3.0634 H   0  0  0  0  0  0
   -1.2542    3.4320   -0.3594 H   0  0  0  0  0  0
   -2.1503   -1.8410    0.8838 H   0  0  0  0  0  0
  1  2  1  0  0  0
  1 42  1  0  0  0
  1 43  1  0  0  0
  1 44  1  0  0  0
  2  9  1  0  0  0
  2  3  1  0  0  0
  2 41  1  0  0  0
  3  4  1  0  0  0
  3 45  1  0  0  0
  3 46  1  0  0  0
  4  5  1  0  0  0
  5  6  1  0  0  0
  5  7  1  0  0  0
  5 14  1  0  0  0
  7  8  1  0  0  0
  7  9  1  0  0  0
  7 13  1  0  0  0
  9 10  1  0  0  0
  9 11  1  0  0  0
 11 12  1  0  0  0
 11 65  1  0  0  0
 11 70  1  0  0  0
 12 47  1  0  0  0
 12 48  1  0  0  0
 12 49  1  0  0  0
 13 50  1  0  0  0
 14 15  1  0  0  0
 15 16  1  0  0  0
 15 24  1  0  0  0
 15 17  1  0  0  0
 17 18  1  0  0  0
 17 19  1  0  0  0
 17 40  1  0  0  0
 19 20  1  0  0  0
 19 51  1  0  0  0
 19 52  1  0  0  0
 20 21  1  0  0  0
 20 22  1  0  0  0
 20 39  1  0  0  0
 22 23  1  0  0  0
 22 24  1  0  0  0
 22 27  1  0  0  0
 24 25  1  0  0  0
 24 26  1  0  0  0
 26 53  1  0  0  0
 27 28  1  0  0  0
 28 29  1  0  0  0
 28 35  1  0  0  0
 28 30  1  0  0  0
 30 31  1  0  0  0
 30 32  1  0  0  0
 30 38  1  0  0  0
 32 33  1  0  0  0
 32 54  1  0  0  0
 32 55  1  0  0  0
 33 34  2  0  0  0
 33 56  1  0  0  0
 34 35  1  0  0  0
 34 36  1  0  0  0
 36 37  1  0  0  0
 36 57  1  0  0  0
 36 58  1  0  0  0
 37 59  1  0  0  0
 37 66  1  0  0  0
 38 60  1  0  0  0
 38 68  1  0  0  0
 38 71  1  0  0  0
 39 61  1  0  0  0
 39 64  1  0  0  0
 40 62  1  0  0  0
 40 67  1  0  0  0
 40 69  1  0  0  0
 41 63  1  0  0  0
M  CHG  3  11   1  38   1  40   1
M  END
> <s_m_entry_id>
106

> <s_m_entry_name>
biosynth_p1.0.sdf.99

> <s_m_Source_Path>
/Users/Sebastito/Downloads

> <s_m_Source_File>
biosynth_p1.0.sdf.gz

> <i_m_Source_File_Index>
99

> <chiral flag>
1

> <version>
0

> <i_m_ct_enhanced_stereo_status>
0

> <s_m_source_file>
ligprep_vs.maegz

> <i_m_source_file_index>
99

> <i_lp_mmshare_version>
37011

> <r_epik_Ionization_Penalty>
2.18991

> <r_epik_Ionization_Penalty_Charging>
0.179312

> <r_epik_Ionization_Penalty_Neutral>
2.0106

> <r_epik_State_Penalty>
2.42851

> <r_epik_Charging_Adjusted_Penalty>
2.60782

> <i_epik_Tot_Q>
3

> <i_epik_Tot_abs_Q>
3

> <s_epik_Chemistry_Notes>
This compound contains an acetal/aminal-like group ( X-CH(R)-Y where X, Y are N, S, or O) that may be acid/base labile, releasing an aldehyde.

> <i_f3d_flags>
0

> <s_lp_Force_Field>
OPLS_2005

> <r_lp_Energy>
63.7525

> <b_lp_Chiralities_Consistent>
1

> <s_lp_Variant>
ZINC60184554-11

$$$$
ZINC60184554
                    3D
 Structure written by MMmdl.
 71 73  0  0  1  0            999 V2000
   -3.5018    3.2776    2.4172 C   0  0  0  0  0  0
   -2.8183    2.0730    1.7414 C   0  0  2  0  0  0
   -1.3670    1.9097    2.2340 C   0  0  0  0  0  0
   -0.7240    0.8304    1.5661 O   0  0  0  0  0  0
   -0.6265    0.9441    0.1797 C   0  0  2  0  0  0
   -0.0875    1.8560   -0.0852 H   0  0  0  0  0  0
   -2.0532    0.9547   -0.4100 C   0  0  1  0  0  0
   -2.5319    0.0059   -0.1693 H   0  0  0  0  0  0
   -2.8611    2.1303    0.1928 C   0  0  2  0  0  0
   -3.8969    2.0220   -0.1353 H   0  0  0  0  0  0
   -2.3500    3.4282   -0.3214 N   0  3  0  0  0  0
   -3.3857    4.3598   -0.8115 C   0  0  0  0  0  0
   -2.0365    1.0956   -1.8178 O   0  0  0  0  0  0
    0.0146   -0.1802   -0.3357 O   0  0  0  0  0  0
    1.4425   -0.1379   -0.3414 C   0  0  2  0  0  0
    1.8169    0.8784   -0.4777 H   0  0  0  0  0  0
    1.8934   -0.9825   -1.5539 C   0  0  1  0  0  0
    2.9830   -0.9380   -1.5801 H   0  0  0  0  0  0
    1.5196   -2.4710   -1.3836 C   0  0  0  0  0  0
    2.0995   -3.0535   -0.0755 C   0  0  1  0  0  0
    3.1876   -3.0051   -0.1399 H   0  0  0  0  0  0
    1.6537   -2.2398    1.1613 C   0  0  1  0  0  0
    2.1662   -2.6324    2.0419 H   0  0  0  0  0  0
    2.0552   -0.7634    0.9343 C   0  0  2  0  0  0
    3.1349   -0.7680    0.7764 H   0  0  0  0  0  0
    1.9399    0.0456    2.0827 O   0  0  0  0  0  0
    0.2372   -2.3890    1.2588 O   0  0  0  0  0  0
   -0.2639   -2.6110    2.5399 C   0  0  2  0  0  0
    0.3197   -3.4027    3.0147 H   0  0  0  0  0  0
   -1.7300   -3.0775    2.3972 C   0  0  1  0  0  0
   -1.7493   -3.9811    1.7866 H   0  0  0  0  0  0
   -2.2724   -3.3870    3.8005 C   0  0  0  0  0  0
   -1.9269   -2.2684    4.7548 C   0  0  0  0  0  0
   -0.9515   -1.3805    4.4929 C   0  0  0  0  0  0
   -0.1788   -1.4687    3.3535 O   0  0  0  0  0  0
   -0.5895   -0.2323    5.4192 C   0  0  0  0  0  0
    0.6625    0.4102    5.0688 N   0  0  0  0  0  0
   -2.5468   -2.0535    1.7191 N   0  3  0  0  0  0
    1.7687   -4.4831    0.0695 N   0  3  0  0  0  0
    1.4131   -0.4206   -2.8264 N   0  0  0  0  0  0
   -3.5516    0.9512    2.1979 O   0  0  0  0  0  0
   -2.9820    4.2116    2.2035 H   0  0  0  0  0  0
   -3.5175    3.1664    3.5023 H   0  0  0  0  0  0
   -4.5349    3.3877    2.0852 H   0  0  0  0  0  0
   -0.7956    2.8229    2.0616 H   0  0  0  0  0  0
   -1.3422    1.7287    3.3082 H   0  0  0  0  0  0
   -2.9186    5.2792   -1.1646 H   0  0  0  0  0  0
   -4.0934    4.6187   -0.0244 H   0  0  0  0  0  0
   -3.9368    3.9189   -1.6428 H   0  0  0  0  0  0
   -1.5371    0.3820   -2.1870 H   0  0  0  0  0  0
    0.4349   -2.5877   -1.3994 H   0  0  0  0  0  0
    1.8988   -3.0394   -2.2339 H   0  0  0  0  0  0
    1.0234    0.1240    2.3011 H   0  0  0  0  0  0
   -3.3537   -3.5262    3.7731 H   0  0  0  0  0  0
   -1.8415   -4.3116    4.1860 H   0  0  0  0  0  0
   -2.4955   -2.2047    5.6715 H   0  0  0  0  0  0
   -1.3892    0.5083    5.4005 H   0  0  0  0  0  0
   -0.5189   -0.6046    6.4417 H   0  0  0  0  0  0
    1.4223   -0.2538    5.1149 H   0  0  0  0  0  0
   -2.5351   -1.2009    2.2608 H   0  0  0  0  0  0
    0.7672   -4.5953    0.1326 H   0  0  0  0  0  0
    1.7449    0.5361   -2.9433 H   0  0  0  0  0  0
   -3.5864    0.9816    3.1425 H   0  0  0  0  0  0
    2.2032   -4.8496    0.9046 H   0  0  0  0  0  0
   -1.8059    3.8791    0.4000 H   0  0  0  0  0  0
    0.6291    0.7621    4.1232 H   0  0  0  0  0  0
    1.7740   -0.9573   -3.6145 H   0  0  0  0  0  0
   -3.4979   -2.3822    1.6307 H   0  0  0  0  0  0
    2.1119   -4.9900   -0.7343 H   0  0  0  0  0  0
   -1.7427    3.2247   -1.1029 H   0  0  0  0  0  0
   -2.1644   -1.8727    0.8022 H   0  0  0  0  0  0
  1  2  1  0  0  0
  1 42  1  0  0  0
  1 43  1  0  0  0
  1 44  1  0  0  0
  2  9  1  0  0  0
  2  3  1  0  0  0
  2 41  1  0  0  0
  3  4  1  0  0  0
  3 45  1  0  0  0
  3 46  1  0  0  0
  4  5  1  0  0  0
  5  6  1  0  0  0
  5  7  1  0  0  0
  5 14  1  0  0  0
  7  8  1  0  0  0
  7  9  1  0  0  0
  7 13  1  0  0  0
  9 10  1  0  0  0
  9 11  1  0  0  0
 11 12  1  0  0  0
 11 65  1  0  0  0
 11 70  1  0  0  0
 12 47  1  0  0  0
 12 48  1  0  0  0
 12 49  1  0  0  0
 13 50  1  0  0  0
 14 15  1  0  0  0
 15 16  1  0  0  0
 15 24  1  0  0  0
 15 17  1  0  0  0
 17 18  1  0  0  0
 17 19  1  0  0  0
 17 40  1  0  0  0
 19 20  1  0  0  0
 19 51  1  0  0  0
 19 52  1  0  0  0
 20 21  1  0  0  0
 20 22  1  0  0  0
 20 39  1  0  0  0
 22 23  1  0  0  0
 22 24  1  0  0  0
 22 27  1  0  0  0
 24 25  1  0  0  0
 24 26  1  0  0  0
 26 53  1  0  0  0
 27 28  1  0  0  0
 28 29  1  0  0  0
 28 35  1  0  0  0
 28 30  1  0  0  0
 30 31  1  0  0  0
 30 32  1  0  0  0
 30 38  1  0  0  0
 32 33  1  0  0  0
 32 54  1  0  0  0
 32 55  1  0  0  0
 33 34  2  0  0  0
 33 56  1  0  0  0
 34 35  1  0  0  0
 34 36  1  0  0  0
 36 37  1  0  0  0
 36 57  1  0  0  0
 36 58  1  0  0  0
 37 59  1  0  0  0
 37 66  1  0  0  0
 38 60  1  0  0  0
 38 68  1  0  0  0
 38 71  1  0  0  0
 39 61  1  0  0  0
 39 64  1  0  0  0
 39 69  1  0  0  0
 40 62  1  0  0  0
 40 67  1  0  0  0
 41 63  1  0  0  0
M  CHG  3  11   1  38   1  39   1
M  END
> <s_m_entry_id>
106

> <s_m_entry_name>
biosynth_p1.0.sdf.99

> <s_m_Source_Path>
/Users/Sebastito/Downloads

> <s_m_Source_File>
biosynth_p1.0.sdf.gz

> <i_m_Source_File_Index>
99

> <chiral flag>
1

> <version>
0

> <i_m_ct_enhanced_stereo_status>
0

> <s_m_source_file>
ligprep_vs.maegz

> <i_m_source_file_index>
99

> <i_lp_mmshare_version>
37011

> <r_epik_Ionization_Penalty>
2.2111

> <r_epik_Ionization_Penalty_Charging>
0.195249

> <r_epik_Ionization_Penalty_Neutral>
2.01585

> <r_epik_State_Penalty>
2.46226

> <r_epik_Charging_Adjusted_Penalty>
2.65751

> <i_epik_Tot_Q>
3

> <i_epik_Tot_abs_Q>
3

> <s_epik_Chemistry_Notes>
This compound contains an acetal/aminal-like group ( X-CH(R)-Y where X, Y are N, S, or O) that may be acid/base labile, releasing an aldehyde.

> <i_f3d_flags>
0

> <s_lp_Force_Field>
OPLS_2005

> <r_lp_Energy>
61.4178

> <b_lp_Chiralities_Consistent>
1

> <s_lp_Variant>
ZINC60184554-12

$$$$
ZINC00002097
                    3D
 Structure written by MMmdl.
 31 32  0  0  1  0            999 V2000
   -0.4974   -3.4993    0.0000 C   0  0  0  0  0  0
    0.1479   -2.2310    0.0000 O   0  0  0  0  0  0
   -0.6392   -1.0961    0.0000 C   0  0  0  0  0  0
   -0.0289    0.1805    0.0000 C   0  0  0  0  0  0
   -0.7625    1.3179    0.0000 N   0  0  0  0  0  0
   -2.1059    1.1782    0.0000 C   0  0  0  0  0  0
   -2.7181   -0.0920    0.0000 C   0  0  0  0  0  0
   -1.9906   -1.2303    0.0000 N   0  0  0  0  0  0
    1.3636    0.2906   -0.0000 N   0  0  0  0  0  0
    2.3271    1.7299   -0.0000 S   0  0  0  0  0  0
    2.0648    2.4003   -1.2832 O   0  0  0  0  0  0
    2.0648    2.4003    1.2832 O   0  0  0  0  0  0
    3.9887    1.0718   -0.0000 C   0  0  0  0  0  0
    4.6333    0.8042    1.2241 C   0  0  0  0  0  0
    5.9368    0.2704    1.2216 C   0  0  0  0  0  0
    6.5892    0.0035    0.0000 C   0  0  0  0  0  0
    5.9368    0.2704   -1.2216 C   0  0  0  0  0  0
    4.6333    0.8042   -1.2241 C   0  0  0  0  0  0
    7.8782   -0.5262    0.0000 N   0  0  0  0  0  0
    0.2560   -4.2869   -0.0000 H   0  0  0  0  0  0
   -1.1153   -3.6327   -0.8891 H   0  0  0  0  0  0
   -1.1153   -3.6327    0.8892 H   0  0  0  0  0  0
   -2.6952    2.0831    0.0000 H   0  0  0  0  0  0
   -3.7932   -0.1944    0.0000 H   0  0  0  0  0  0
    4.1351    1.0026    2.1615 H   0  0  0  0  0  0
    6.4314    0.0656    2.1601 H   0  0  0  0  0  0
    6.4314    0.0657   -2.1601 H   0  0  0  0  0  0
    4.1351    1.0027   -2.1615 H   0  0  0  0  0  0
    8.3848   -0.6779   -0.8604 H   0  0  0  0  0  0
    8.3847   -0.6780    0.8605 H   0  0  0  0  0  0
    1.8647   -0.5859    0.0000 H   0  0  0  0  0  0
  1  2  1  0  0  0
  1 20  1  0  0  0
  1 21  1  0  0  0
  1 22  1  0  0  0
  2  3  1  0  0  0
  3  8  2  0  0  0
  3  4  1  0  0  0
  4  5  2  0  0  0
  4  9  1  0  0  0
  5  6  1  0  0  0
  6  7  2  0  0  0
  6 23  1  0  0  0
  7  8  1  0  0  0
  7 24  1  0  0  0
  9 10  1  0  0  0
  9 31  1  0  0  0
 10 11  2  0  0  0
 10 12  2  0  0  0
 10 13  1  0  0  0
 13 18  2  0  0  0
 13 14  1  0  0  0
 14 15  2  0  0  0
 14 25  1  0  0  0
 15 16  1  0  0  0
 15 26  1  0  0  0
 16 17  2  0  0  0
 16 19  1  0  0  0
 17 18  1  0  0  0
 17 27  1  0  0  0
 18 28  1  0  0  0
 19 29  1  0  0  0
 19 30  1  0  0  0
M  END
> <s_m_entry_id>
107

> <s_m_entry_name>
biosynth_p1.0.sdf.100

> <s_m_Source_Path>
/Users/Sebastito/Downloads

> <s_m_Source_File>
biosynth_p1.0.sdf.gz

> <i_m_Source_File_Index>
100

> <chiral flag>
0

> <version>
0

> <i_m_ct_enhanced_stereo_status>
0

> <s_m_source_file>
ligprep_vs.maegz

> <i_m_source_file_index>
100

> <i_lp_mmshare_version>
37011

> <r_epik_Ionization_Penalty>
0.123917

> <r_epik_Ionization_Penalty_Charging>
0

> <r_epik_Ionization_Penalty_Neutral>
0.123917

> <r_epik_State_Penalty>
0.113384

> <r_epik_Charging_Adjusted_Penalty>
0.113384

> <i_epik_Tot_Q>
0

> <i_epik_Tot_abs_Q>
0

> <i_f3d_flags>
0

> <s_lp_Force_Field>
OPLS_2005

> <r_lp_Energy>
11.944

> <b_lp_Chiralities_Consistent>
1

> <s_lp_Variant>
ZINC00002097-1

$$$$
ZINC00002097
                    3D
 Structure written by MMmdl.
 30 31  0  0  1  0            999 V2000
   -0.0810   -3.3105   -0.0001 C   0  0  0  0  0  0
    0.4014   -1.9717   -0.0000 O   0  0  0  0  0  0
   -0.5171   -0.9380    0.0000 C   0  0  0  0  0  0
   -0.0599    0.4070   -0.0000 C   0  0  0  0  0  0
   -0.9614    1.4223    0.0001 N   0  0  0  0  0  0
   -2.2745    1.1131    0.0001 C   0  0  0  0  0  0
   -2.7134   -0.2231    0.0001 C   0  0  0  0  0  0
   -1.8396   -1.2497    0.0001 N   0  0  0  0  0  0
    1.2576    0.6654   -0.0001 N   0  5  0  0  0  0
    1.9382    2.1334   -0.0001 S   0  0  0  0  0  0
    1.7226    2.8627   -1.2601 O   0  0  0  0  0  0
    1.7226    2.8626    1.2598 O   0  0  0  0  0  0
    3.6452    1.5899   -0.0000 C   0  0  0  0  0  0
    4.3125    1.3774    1.2236 C   0  0  0  0  0  0
    5.6551    0.9510    1.2212 C   0  0  0  0  0  0
    6.3277    0.7381    0.0000 C   0  0  0  0  0  0
    5.6552    0.9512   -1.2213 C   0  0  0  0  0  0
    4.3126    1.3777   -1.2237 C   0  0  0  0  0  0
    7.6568    0.3172    0.0001 N   0  0  0  0  0  0
    0.7644   -3.9983   -0.0001 H   0  0  0  0  0  0
   -0.6774   -3.5201   -0.8892 H   0  0  0  0  0  0
   -0.6772   -3.5201    0.8893 H   0  0  0  0  0  0
   -2.9753    1.9347    0.0001 H   0  0  0  0  0  0
   -3.7651   -0.4681    0.0001 H   0  0  0  0  0  0
    3.7997    1.5357    2.1608 H   0  0  0  0  0  0
    6.1642    0.7880    2.1598 H   0  0  0  0  0  0
    6.1645    0.7884   -2.1599 H   0  0  0  0  0  0
    3.8000    1.5363   -2.1609 H   0  0  0  0  0  0
    8.1832    0.2580   -0.8597 H   0  0  0  0  0  0
    8.1830    0.2579    0.8600 H   0  0  0  0  0  0
  1  2  1  0  0  0
  1 20  1  0  0  0
  1 21  1  0  0  0
  1 22  1  0  0  0
  2  3  1  0  0  0
  3  8  2  0  0  0
  3  4  1  0  0  0
  4  5  2  0  0  0
  4  9  1  0  0  0
  5  6  1  0  0  0
  6  7  2  0  0  0
  6 23  1  0  0  0
  7  8  1  0  0  0
  7 24  1  0  0  0
  9 10  1  0  0  0
 10 11  2  0  0  0
 10 12  2  0  0  0
 10 13  1  0  0  0
 13 18  2  0  0  0
 13 14  1  0  0  0
 14 15  2  0  0  0
 14 25  1  0  0  0
 15 16  1  0  0  0
 15 26  1  0  0  0
 16 17  2  0  0  0
 16 19  1  0  0  0
 17 18  1  0  0  0
 17 27  1  0  0  0
 18 28  1  0  0  0
 19 29  1  0  0  0
 19 30  1  0  0  0
M  CHG  1   9  -1
M  END
> <s_m_entry_id>
107

> <s_m_entry_name>
biosynth_p1.0.sdf.100

> <s_m_Source_Path>
/Users/Sebastito/Downloads

> <s_m_Source_File>
biosynth_p1.0.sdf.gz

> <i_m_Source_File_Index>
100

> <chiral flag>
0

> <version>
0

> <i_m_ct_enhanced_stereo_status>
0

> <s_m_source_file>
ligprep_vs.maegz

> <i_m_source_file_index>
100

> <i_lp_mmshare_version>
37011

> <r_epik_Ionization_Penalty>
0.989289

> <r_epik_Ionization_Penalty_Charging>
0.988035

> <r_epik_Ionization_Penalty_Neutral>
0.00125421

> <r_epik_State_Penalty>
1.03549

> <r_epik_Charging_Adjusted_Penalty>
2.02352

> <i_epik_Tot_Q>
-1

> <i_epik_Tot_abs_Q>
1

> <i_f3d_flags>
0

> <s_lp_Force_Field>
OPLS_2005

> <r_lp_Energy>
19.7316

> <b_lp_Chiralities_Consistent>
1

> <s_lp_Variant>
ZINC00002097-2

$$$$
