Ligand-nat
                    3D
 Structure written by MMmdl.
 66 71  0  0  1  0            999 V2000
   -1.2322    3.3194    1.3932 C   0  0  0  0  0  0
   -0.7110    2.0264    1.0812 C   0  0  0  0  0  0
   -0.8263    2.6799   -1.2677 C   0  0  0  0  0  0
    0.0372    0.3569   -0.7169 C   0  0  0  0  0  0
    1.5707    0.2573   -0.5498 C   0  0  1  0  0  0
    2.0986   -1.1849   -0.3130 C   0  0  2  0  0  0
    3.6309   -1.3252   -0.5382 C   0  0  0  0  0  0
    4.0909   -2.7768   -0.2911 C   0  0  0  0  0  0
    1.8443   -3.4514   -1.1195 C   0  0  0  0  0  0
    2.2020   -3.1448    1.3207 C   0  0  0  0  0  0
    3.2250   -5.1005    0.1009 N   0  3  0  0  0  0
    4.0986   -5.5259    1.2165 C   0  0  0  0  0  0
    4.5045   -6.9740    1.0334 C   0  0  0  0  0  0
   -1.1110    2.6933    3.7488 C   0  0  0  0  0  0
   -0.6416    2.4293   -2.5862 F   0  0  0  0  0  0
   -0.4084    1.1275    2.0493 N   0  0  0  0  0  0
   -0.2363    0.4275    4.2084 O   0  0  0  0  0  0
   -1.4289    3.6343    2.7539 C   0  0  0  0  0  0
   -0.5962    1.4402    3.3470 C   0  0  0  0  0  0
   -1.5346    4.2343    0.4450 N   0  0  0  0  0  0
   -1.3345    3.9207   -0.8493 C   0  0  0  0  0  0
   -0.5128    1.7131   -0.2897 C   0  0  0  0  0  0
    2.8651   -3.6616    0.0255 C   0  0  2  0  0  0
    1.4410   -2.0784   -1.2190 O   0  0  0  0  0  0
    1.7570   -1.6808    1.1210 C   0  0  0  0  0  0
    3.6144   -7.9012    1.4511 N   0  0  0  0  0  0
    3.9235   -9.2099    1.3065 C   0  0  0  0  0  0
    5.1448   -9.6358    0.7269 C   0  0  0  0  0  0
    6.0579   -8.6646    0.2732 C   0  0  0  0  0  0
    5.7364   -7.3041    0.4326 C   0  0  0  0  0  0
    2.1854    0.8513   -1.6773 O   0  0  0  0  0  0
    3.0030  -10.2105    1.6865 N   0  0  0  0  0  0
    3.3089  -11.5148    1.7211 C   0  0  0  0  0  0
    4.7729  -11.8913    1.4435 C   0  0  0  0  0  0
    5.4253  -10.9724    0.5588 O   0  0  0  0  0  0
    2.4811  -12.3820    1.9919 O   0  0  0  0  0  0
   -0.3894    0.6587    5.6010 C   0  0  0  0  0  0
   -0.2490    0.1330   -1.7454 H   0  0  0  0  0  0
   -0.4709   -0.4013   -0.1229 H   0  0  0  0  0  0
    1.8784    0.8517    0.3116 H   0  0  0  0  0  0
    3.8960   -1.0468   -1.5586 H   0  0  0  0  0  0
    4.1740   -0.6434    0.1175 H   0  0  0  0  0  0
    4.6164   -3.1521   -1.1703 H   0  0  0  0  0  0
    4.8088   -2.7912    0.5291 H   0  0  0  0  0  0
    2.2686   -3.7588   -2.0762 H   0  0  0  0  0  0
    0.9537   -4.0609   -0.9614 H   0  0  0  0  0  0
    1.3405   -3.7623    1.5791 H   0  0  0  0  0  0
    2.8890   -3.1987    2.1658 H   0  0  0  0  0  0
    3.6859   -5.3476   -0.7630 H   0  0  0  0  0  0
    4.9970   -4.9114    1.2644 H   0  0  0  0  0  0
    3.5791   -5.4149    2.1689 H   0  0  0  0  0  0
   -1.2653    2.9499    4.7858 H   0  0  0  0  0  0
   -1.8221    4.6001    3.0367 H   0  0  0  0  0  0
   -1.5849    4.6830   -1.5721 H   0  0  0  0  0  0
    2.2428   -1.0430    1.8607 H   0  0  0  0  0  0
    0.6884   -1.6073    1.3194 H   0  0  0  0  0  0
    6.9901   -8.9588   -0.1864 H   0  0  0  0  0  0
    6.4198   -6.5367    0.0992 H   0  0  0  0  0  0
    1.8705    1.7389   -1.7590 H   0  0  0  0  0  0
    2.0694   -9.9205    1.9382 H   0  0  0  0  0  0
    5.3162  -11.9271    2.3883 H   0  0  0  0  0  0
    4.8178  -12.8899    1.0076 H   0  0  0  0  0  0
   -0.0593   -0.2220    6.1515 H   0  0  0  0  0  0
   -1.4331    0.8393    5.8618 H   0  0  0  0  0  0
    0.2170    1.5023    5.9340 H   0  0  0  0  0  0
    2.3717   -5.6371    0.1656 H   0  0  0  0  0  0
  1  2  1  0  0  0
  1 18  1  0  0  0
  1 20  2  0  0  0
  2 16  1  0  0  0
  2 22  2  0  0  0
  3 15  1  0  0  0
  3 21  2  0  0  0
  3 22  1  0  0  0
  4  5  1  0  0  0
  4 22  1  0  0  0
  4 38  1  0  0  0
  4 39  1  0  0  0
  5  6  1  0  0  0
  5 31  1  0  0  0
  5 40  1  0  0  0
  6  7  1  0  0  0
  6 24  1  0  0  0
  6 25  1  0  0  0
  7  8  1  0  0  0
  7 41  1  0  0  0
  7 42  1  0  0  0
  8 23  1  0  0  0
  8 43  1  0  0  0
  8 44  1  0  0  0
  9 23  1  0  0  0
  9 24  1  0  0  0
  9 45  1  0  0  0
  9 46  1  0  0  0
 10 23  1  0  0  0
 10 25  1  0  0  0
 10 47  1  0  0  0
 10 48  1  0  0  0
 11 12  1  0  0  0
 11 23  1  0  0  0
 11 49  1  0  0  0
 11 66  1  0  0  0
 12 13  1  0  0  0
 12 50  1  0  0  0
 12 51  1  0  0  0
 13 26  1  0  0  0
 13 30  2  0  0  0
 14 18  2  0  0  0
 14 19  1  0  0  0
 14 52  1  0  0  0
 16 19  2  0  0  0
 17 19  1  0  0  0
 17 37  1  0  0  0
 18 53  1  0  0  0
 20 21  1  0  0  0
 21 54  1  0  0  0
 25 55  1  0  0  0
 25 56  1  0  0  0
 26 27  2  0  0  0
 27 28  1  0  0  0
 27 32  1  0  0  0
 28 29  2  0  0  0
 28 35  1  0  0  0
 29 30  1  0  0  0
 29 57  1  0  0  0
 30 58  1  0  0  0
 31 59  1  0  0  0
 32 33  1  0  0  0
 32 60  1  0  0  0
 33 34  1  0  0  0
 33 36  2  0  0  0
 34 35  1  0  0  0
 34 61  1  0  0  0
 34 62  1  0  0  0
 37 63  1  0  0  0
 37 64  1  0  0  0
 37 65  1  0  0  0
M  CHG  1  11   1
M  END
> <s_m_entry_id>
7

> <s_m_entry_name>
4PLB-prep.1

> <s_pdb_PDB_TITLE>
CRYSTAL STRUCTURE OF S.A. GYRASE-AM8191 COMPLEX

> <s_pdb_PDB_ID>
4PLB

> <s_pdb_PDB_CLASSIFICATION>
ISOMERASE/ISOMERASE INHIBITOR/DNA

> <s_pdb_PDB_DEPOSITION_DATE>
16-MAY-14

> <s_pdb_PDB_format_version>
3.30

> <r_pdb_PDB_R>
0.177000001072884

> <r_pdb_PDB_Rfree>
0.219999998807907

> <r_pdb_PDB_RESOLUTION>
2.69

> <s_pdb_PDB_EXPDTA>
X-RAY DIFFRACTION

> <r_pdb_PDB_EXPDTA_TEMPERATURE>
100

> <r_pdb_PDB_EXPDTA_PH>
6

> <s_pdb_PDB_REMARK_350_Biomolecule_1_Chains>
E, F, B, D

> <s_pdb_PDB_REMARK_350_Biomolecule_1_Transformation_1>
1.000000 0.000000 0.000000   0.000000;0.000000 1.000000 0.000000   0.000000;0.000000 0.000000 1.000000   0.000000

> <b_ppw_prepared>
1

> <b_psp_distorted_structure>
-1

> <i_psp_model_num>
0

> <r_psp_Prime_Coulomb>
-47216.9487599359

> <r_psp_Prime_Covalent>
12025.2885653836

> <r_psp_Prime_vdW>
91136129.6199336

> <r_psp_Prime_Solv_GB>
-12158.0494875563

> <r_psp_Prime_Lipo>
-8401.27709240306

> <r_psp_Prime_Energy>
91078997.492413

> <s_psp_Prime_Energy_Force_Field>
OPLS_2005

> <s_psp_Prime_Energy_Solvent_Model>
VSGB2.0

> <r_psp_Prime_Hbond>
-746.9176228858

> <r_psp_Prime_Packing>
-56.7237301631803

> <r_psp_Prime_SelfCont>
-577.49939311963

> <r_i_Potential_Energy-OPLS3>
-45608.1255890836

> <r_i_RMS_Derivative-OPLS3>
0.125085364171903

> <r_i_Max_Derivative-OPLS3>
9.71031818060534

> <r_i_Stretch_Energy-OPLS3>
78.1182230816857

> <r_i_Bend_Energy-OPLS3>
1566.41438174864

> <r_i_LJ-14_Energy-OPLS3>
2175.32069455429

> <r_i_El-14_Energy-OPLS3>
-2810.11577782076

> <r_i_Van_der_Waals_Energy-OPLS3>
-3543.28809510712

> <r_i_Electrostatic_Energy-OPLS3>
-43368.5499571308

> <r_i_Dihedral_Energy-OPLS3>
293.974941590443

> <r_i_target_temperature>
298

> <r_pdb_PDB_CRYST1_a>
93.31

> <r_pdb_PDB_CRYST1_b>
93.31

> <r_pdb_PDB_CRYST1_c>
410.197

> <r_pdb_PDB_CRYST1_alpha>
90

> <r_pdb_PDB_CRYST1_beta>
90

> <r_pdb_PDB_CRYST1_gamma>
120

> <i_pdb_PDB_CRYST1_z>
12

> <s_pdb_PDB_CRYST1_Space_Group>
P 61

> <s_m_Source_Path>
/Users/Sebastito/Downloads/Maestro

> <s_m_Source_File>
4PLB-prep.mae

> <i_m_Source_File_Index>
1

> <s_m_source_file>
ligprep_1.maegz

> <i_m_source_file_index>
1

> <i_lp_mmshare_version>
37011

> <r_lp_tautomer_probability>
1

> <r_epik_Ionization_Penalty>
0.0478915

> <r_epik_Ionization_Penalty_Charging>
0.0477463

> <r_epik_Ionization_Penalty_Neutral>
0.000145167

> <r_epik_State_Penalty>
0.0406795

> <r_epik_Charging_Adjusted_Penalty>
0.0884258

> <i_epik_Tot_Q>
1

> <i_epik_Tot_abs_Q>
1

> <i_f3d_flags>
0

> <s_lp_Force_Field>
OPLS_2005

> <r_lp_Energy>
59.562

> <b_lp_Chiralities_Consistent>
1

> <s_lp_Variant>
Ligand-nat-1

$$$$
Ligand-nat
                    3D
 Structure written by MMmdl.
 66 71  0  0  1  0            999 V2000
   -2.4658    2.9563    0.3980 C   0  0  0  0  0  0
   -1.8496    1.7269    0.7893 C   0  0  0  0  0  0
   -0.6742    1.7772   -1.3485 C   0  0  0  0  0  0
   -0.2242   -0.1784    0.1984 C   0  0  0  0  0  0
    1.1511    0.0354    0.8691 C   0  0  2  0  0  0
    2.1354   -1.1481    0.6833 C   0  0  2  0  0  0
    3.5218   -0.8565    1.3188 C   0  0  0  0  0  0
    4.5123   -2.0029    1.0237 C   0  0  0  0  0  0
    3.2581   -2.3594   -1.0886 C   0  0  0  0  0  0
    2.6026   -3.6371    0.9410 C   0  0  0  0  0  0
    4.7545   -4.1454   -0.2694 N   0  3  0  0  0  0
    5.3375   -5.0069    0.7823 C   0  0  0  0  0  0
    6.2988   -6.0000    0.1620 C   0  0  0  0  0  0
   -3.6415    2.9364    2.5356 C   0  0  0  0  0  0
    0.1996    1.2525   -2.2413 F   0  0  0  0  0  0
   -2.1176    1.1459    1.9833 N   0  0  0  0  0  0
   -3.2422    1.1236    4.0526 O   0  0  0  0  0  0
   -3.3737    3.5510    1.3000 C   0  0  0  0  0  0
   -2.9881    1.7303    2.8395 C   0  0  0  0  0  0
   -2.2101    3.5583   -0.7852 N   0  0  0  0  0  0
   -1.3362    2.9828   -1.6328 C   0  0  0  0  0  0
   -0.9353    1.1331   -0.1208 C   0  0  0  0  0  0
    3.8157   -3.0789    0.1618 C   0  0  2  0  0  0
    2.3759   -1.2903   -0.7222 O   0  0  0  0  0  0
    1.5856   -2.5051    1.2007 C   0  0  0  0  0  0
    5.7367   -7.0453   -0.4848 N   0  0  0  0  0  0
    6.5445   -7.9594   -1.0678 C   0  0  0  0  0  0
    7.9571   -7.8533   -1.0226 C   0  0  0  0  0  0
    8.5363   -6.7505   -0.3654 C   0  0  0  0  0  0
    7.6924   -5.8036    0.2439 C   0  0  0  0  0  0
    0.9555    0.2843    2.2481 O   0  0  0  0  0  0
    5.9980   -9.0365   -1.7985 N   0  0  0  0  0  0
    6.7326  -10.0580   -2.2595 C   0  0  0  0  0  0
    8.2129  -10.0874   -1.8472 C   0  0  0  0  0  0
    8.7601   -8.7781   -1.6499 O   0  0  0  0  0  0
    6.2582  -10.9547   -2.9535 O   0  0  0  0  0  0
   -2.5625   -0.0899    4.3592 C   0  0  0  0  0  0
   -0.0973   -0.7114   -0.7440 H   0  0  0  0  0  0
   -0.8577   -0.8291    0.8023 H   0  0  0  0  0  0
    1.6185    0.9203    0.4343 H   0  0  0  0  0  0
    3.9197    0.0822    0.9309 H   0  0  0  0  0  0
    3.4277   -0.7265    2.3976 H   0  0  0  0  0  0
    5.3902   -1.6104    0.5082 H   0  0  0  0  0  0
    4.8671   -2.4221    1.9655 H   0  0  0  0  0  0
    4.0668   -1.9479   -1.6939 H   0  0  0  0  0  0
    2.7129   -3.0578   -1.7250 H   0  0  0  0  0  0
    2.1247   -4.4427    0.3818 H   0  0  0  0  0  0
    2.9154   -4.0633    1.8947 H   0  0  0  0  0  0
    5.5162   -3.7080   -0.7683 H   0  0  0  0  0  0
    5.8673   -4.4074    1.5222 H   0  0  0  0  0  0
    4.5552   -5.5557    1.3070 H   0  0  0  0  0  0
   -4.3322    3.3827    3.2357 H   0  0  0  0  0  0
   -3.8635    4.4797    1.0462 H   0  0  0  0  0  0
   -1.1582    3.4998   -2.5642 H   0  0  0  0  0  0
    1.3637   -2.4448    2.2669 H   0  0  0  0  0  0
    0.6455   -2.7482    0.7051 H   0  0  0  0  0  0
    9.6095   -6.6338   -0.3284 H   0  0  0  0  0  0
    8.1086   -4.9494    0.7575 H   0  0  0  0  0  0
    0.3559    1.0095    2.3406 H   0  0  0  0  0  0
    5.0061   -9.0241   -1.9852 H   0  0  0  0  0  0
    8.3135  -10.6607   -0.9248 H   0  0  0  0  0  0
    8.7968  -10.6007   -2.6118 H   0  0  0  0  0  0
   -2.8695   -0.4357    5.3461 H   0  0  0  0  0  0
   -1.4809    0.0522    4.3804 H   0  0  0  0  0  0
   -2.8057   -0.8763    3.6432 H   0  0  0  0  0  0
    4.2646   -4.7502   -0.9135 H   0  0  0  0  0  0
  1  2  1  0  0  0
  1 18  1  0  0  0
  1 20  2  0  0  0
  2 16  1  0  0  0
  2 22  2  0  0  0
  3 15  1  0  0  0
  3 21  2  0  0  0
  3 22  1  0  0  0
  4  5  1  0  0  0
  4 22  1  0  0  0
  4 38  1  0  0  0
  4 39  1  0  0  0
  5  6  1  0  0  0
  5 31  1  0  0  0
  5 40  1  0  0  0
  6  7  1  0  0  0
  6 24  1  0  0  0
  6 25  1  0  0  0
  7  8  1  0  0  0
  7 41  1  0  0  0
  7 42  1  0  0  0
  8 23  1  0  0  0
  8 43  1  0  0  0
  8 44  1  0  0  0
  9 23  1  0  0  0
  9 24  1  0  0  0
  9 45  1  0  0  0
  9 46  1  0  0  0
 10 23  1  0  0  0
 10 25  1  0  0  0
 10 47  1  0  0  0
 10 48  1  0  0  0
 11 12  1  0  0  0
 11 23  1  0  0  0
 11 49  1  0  0  0
 11 66  1  0  0  0
 12 13  1  0  0  0
 12 50  1  0  0  0
 12 51  1  0  0  0
 13 26  1  0  0  0
 13 30  2  0  0  0
 14 18  2  0  0  0
 14 19  1  0  0  0
 14 52  1  0  0  0
 16 19  2  0  0  0
 17 19  1  0  0  0
 17 37  1  0  0  0
 18 53  1  0  0  0
 20 21  1  0  0  0
 21 54  1  0  0  0
 25 55  1  0  0  0
 25 56  1  0  0  0
 26 27  2  0  0  0
 27 28  1  0  0  0
 27 32  1  0  0  0
 28 29  2  0  0  0
 28 35  1  0  0  0
 29 30  1  0  0  0
 29 57  1  0  0  0
 30 58  1  0  0  0
 31 59  1  0  0  0
 32 33  1  0  0  0
 32 60  1  0  0  0
 33 34  1  0  0  0
 33 36  2  0  0  0
 34 35  1  0  0  0
 34 61  1  0  0  0
 34 62  1  0  0  0
 37 63  1  0  0  0
 37 64  1  0  0  0
 37 65  1  0  0  0
M  CHG  1  11   1
M  END
> <s_m_entry_id>
7

> <s_m_entry_name>
4PLB-prep.1

> <s_pdb_PDB_TITLE>
CRYSTAL STRUCTURE OF S.A. GYRASE-AM8191 COMPLEX

> <s_pdb_PDB_ID>
4PLB

> <s_pdb_PDB_CLASSIFICATION>
ISOMERASE/ISOMERASE INHIBITOR/DNA

> <s_pdb_PDB_DEPOSITION_DATE>
16-MAY-14

> <s_pdb_PDB_format_version>
3.30

> <r_pdb_PDB_R>
0.177000001072884

> <r_pdb_PDB_Rfree>
0.219999998807907

> <r_pdb_PDB_RESOLUTION>
2.69

> <s_pdb_PDB_EXPDTA>
X-RAY DIFFRACTION

> <r_pdb_PDB_EXPDTA_TEMPERATURE>
100

> <r_pdb_PDB_EXPDTA_PH>
6

> <s_pdb_PDB_REMARK_350_Biomolecule_1_Chains>
E, F, B, D

> <s_pdb_PDB_REMARK_350_Biomolecule_1_Transformation_1>
1.000000 0.000000 0.000000   0.000000;0.000000 1.000000 0.000000   0.000000;0.000000 0.000000 1.000000   0.000000

> <b_ppw_prepared>
1

> <b_psp_distorted_structure>
-1

> <i_psp_model_num>
0

> <r_psp_Prime_Coulomb>
-47216.9487599359

> <r_psp_Prime_Covalent>
12025.2885653836

> <r_psp_Prime_vdW>
91136129.6199336

> <r_psp_Prime_Solv_GB>
-12158.0494875563

> <r_psp_Prime_Lipo>
-8401.27709240306

> <r_psp_Prime_Energy>
91078997.492413

> <s_psp_Prime_Energy_Force_Field>
OPLS_2005

> <s_psp_Prime_Energy_Solvent_Model>
VSGB2.0

> <r_psp_Prime_Hbond>
-746.9176228858

> <r_psp_Prime_Packing>
-56.7237301631803

> <r_psp_Prime_SelfCont>
-577.49939311963

> <r_i_Potential_Energy-OPLS3>
-45608.1255890836

> <r_i_RMS_Derivative-OPLS3>
0.125085364171903

> <r_i_Max_Derivative-OPLS3>
9.71031818060534

> <r_i_Stretch_Energy-OPLS3>
78.1182230816857

> <r_i_Bend_Energy-OPLS3>
1566.41438174864

> <r_i_LJ-14_Energy-OPLS3>
2175.32069455429

> <r_i_El-14_Energy-OPLS3>
-2810.11577782076

> <r_i_Van_der_Waals_Energy-OPLS3>
-3543.28809510712

> <r_i_Electrostatic_Energy-OPLS3>
-43368.5499571308

> <r_i_Dihedral_Energy-OPLS3>
293.974941590443

> <r_i_target_temperature>
298

> <r_pdb_PDB_CRYST1_a>
93.31

> <r_pdb_PDB_CRYST1_b>
93.31

> <r_pdb_PDB_CRYST1_c>
410.197

> <r_pdb_PDB_CRYST1_alpha>
90

> <r_pdb_PDB_CRYST1_beta>
90

> <r_pdb_PDB_CRYST1_gamma>
120

> <i_pdb_PDB_CRYST1_z>
12

> <s_pdb_PDB_CRYST1_Space_Group>
P 61

> <s_m_Source_Path>
/Users/Sebastito/Downloads/Maestro

> <s_m_Source_File>
4PLB-prep.mae

> <i_m_Source_File_Index>
1

> <s_m_source_file>
ligprep_1.maegz

> <i_m_source_file_index>
1

> <i_lp_mmshare_version>
37011

> <r_lp_tautomer_probability>
1

> <r_epik_Ionization_Penalty>
0.0478915

> <r_epik_Ionization_Penalty_Charging>
0.0477463

> <r_epik_Ionization_Penalty_Neutral>
0.000145167

> <r_epik_State_Penalty>
0.0406795

> <r_epik_Charging_Adjusted_Penalty>
0.0884258

> <i_epik_Tot_Q>
1

> <i_epik_Tot_abs_Q>
1

> <i_f3d_flags>
0

> <s_lp_Force_Field>
OPLS_2005

> <r_lp_Energy>
57.8771

> <b_lp_Chiralities_Consistent>
1

> <s_lp_Variant>
Ligand-nat-2

$$$$
Ligand-nat
                    3D
 Structure written by MMmdl.
 65 70  0  0  1  0            999 V2000
   -0.9303    3.4958    1.5477 C   0  0  0  0  0  0
   -0.5673    2.1587    1.1985 C   0  0  0  0  0  0
   -0.6819    2.8673   -1.1345 C   0  0  0  0  0  0
   -0.0595    0.4549   -0.6532 C   0  0  0  0  0  0
    1.4651    0.2140   -0.6038 C   0  0  1  0  0  0
    1.8639   -1.2795   -0.4928 C   0  0  2  0  0  0
    1.3025   -2.1643   -1.6385 C   0  0  0  0  0  0
    1.7006   -3.6413   -1.4296 C   0  0  0  0  0  0
    1.5735   -3.1602    1.0160 C   0  0  0  0  0  0
    3.7485   -2.9515   -0.1743 C   0  0  0  0  0  0
    2.8159   -5.1884    0.2021 N   0  0  0  0  0  0
    1.7213   -6.1425    0.3906 C   0  0  0  0  0  0
    2.2484   -7.5368    0.6549 C   0  0  0  0  0  0
   -0.8110    2.8143    3.8880 C   0  0  0  0  0  0
   -0.5671    2.6236   -2.4622 F   0  0  0  0  0  0
   -0.3405    1.2129    2.1423 N   0  0  0  0  0  0
   -0.1992    0.4529    4.2838 O   0  0  0  0  0  0
   -1.0484    3.8045    2.9189 C   0  0  0  0  0  0
   -0.4567    1.5185    3.4501 C   0  0  0  0  0  0
   -1.1579    4.4573    0.6248 N   0  0  0  0  0  0
   -1.0354    4.1485   -0.6802 C   0  0  0  0  0  0
   -0.4468    1.8527   -0.1832 C   0  0  0  0  0  0
    2.4569   -3.7915   -0.0886 C   0  0  2  0  0  0
    1.3328   -1.7714    0.7458 O   0  0  0  0  0  0
    3.3995   -1.4652   -0.3913 C   0  0  0  0  0  0
    2.3105   -8.3632   -0.4123 N   0  0  0  0  0  0
    2.7856   -9.6160   -0.2355 C   0  0  0  0  0  0
    3.2194  -10.0868    1.0291 C   0  0  0  0  0  0
    3.1700   -9.2134    2.1329 C   0  0  0  0  0  0
    2.6694   -7.9118    1.9464 C   0  0  0  0  0  0
    2.0524    0.7948   -1.7528 O   0  0  0  0  0  0
    2.9159  -10.4928   -1.3337 N   0  0  0  0  0  0
    3.2218  -11.7908   -1.2042 C   0  0  0  0  0  0
    3.3090  -12.3422    0.2279 C   0  0  0  0  0  0
    3.7290  -11.3563    1.1787 O   0  0  0  0  0  0
    3.3966  -12.5302   -2.1705 O   0  0  0  0  0  0
   -0.3122    0.6645    5.6832 C   0  0  0  0  0  0
   -0.4466    0.2716   -1.6564 H   0  0  0  0  0  0
   -0.5769   -0.2652   -0.0192 H   0  0  0  0  0  0
    1.8748    0.7235    0.2696 H   0  0  0  0  0  0
    0.2157   -2.0893   -1.6763 H   0  0  0  0  0  0
    1.6684   -1.8161   -2.6050 H   0  0  0  0  0  0
    0.7967   -4.2497   -1.4489 H   0  0  0  0  0  0
    2.3216   -3.9858   -2.2577 H   0  0  0  0  0  0
    0.6058   -3.6575    1.0835 H   0  0  0  0  0  0
    2.0469   -3.2492    1.9946 H   0  0  0  0  0  0
    4.3323   -3.0593    0.7413 H   0  0  0  0  0  0
    4.3835   -3.3084   -0.9864 H   0  0  0  0  0  0
    3.4342   -5.5346   -0.5248 H   0  0  0  0  0  0
    1.0935   -5.8509    1.2325 H   0  0  0  0  0  0
    1.0773   -6.1789   -0.4876 H   0  0  0  0  0  0
   -0.9043    3.0660    4.9335 H   0  0  0  0  0  0
   -1.3199    4.8030    3.2295 H   0  0  0  0  0  0
   -1.2221    4.9473   -1.3825 H   0  0  0  0  0  0
    3.8905   -1.1040   -1.2955 H   0  0  0  0  0  0
    3.7948   -0.8698    0.4325 H   0  0  0  0  0  0
    3.5087   -9.5368    3.1061 H   0  0  0  0  0  0
    2.6166   -7.2171    2.7718 H   0  0  0  0  0  0
    1.8169    1.7095   -1.7802 H   0  0  0  0  0  0
    2.7767  -10.1110   -2.2578 H   0  0  0  0  0  0
    2.3320  -12.7286    0.5206 H   0  0  0  0  0  0
    4.0081  -13.1783    0.2564 H   0  0  0  0  0  0
   -0.0990   -0.2671    6.2067 H   0  0  0  0  0  0
   -1.3209    0.9742    5.9598 H   0  0  0  0  0  0
    0.4029    1.4104    6.0320 H   0  0  0  0  0  0
  1  2  1  0  0  0
  1 18  1  0  0  0
  1 20  2  0  0  0
  2 16  1  0  0  0
  2 22  2  0  0  0
  3 15  1  0  0  0
  3 21  2  0  0  0
  3 22  1  0  0  0
  4  5  1  0  0  0
  4 22  1  0  0  0
  4 38  1  0  0  0
  4 39  1  0  0  0
  5  6  1  0  0  0
  5 31  1  0  0  0
  5 40  1  0  0  0
  6  7  1  0  0  0
  6 24  1  0  0  0
  6 25  1  0  0  0
  7  8  1  0  0  0
  7 41  1  0  0  0
  7 42  1  0  0  0
  8 23  1  0  0  0
  8 43  1  0  0  0
  8 44  1  0  0  0
  9 23  1  0  0  0
  9 24  1  0  0  0
  9 45  1  0  0  0
  9 46  1  0  0  0
 10 23  1  0  0  0
 10 25  1  0  0  0
 10 47  1  0  0  0
 10 48  1  0  0  0
 11 12  1  0  0  0
 11 23  1  0  0  0
 11 49  1  0  0  0
 12 13  1  0  0  0
 12 50  1  0  0  0
 12 51  1  0  0  0
 13 26  1  0  0  0
 13 30  2  0  0  0
 14 18  2  0  0  0
 14 19  1  0  0  0
 14 52  1  0  0  0
 16 19  2  0  0  0
 17 19  1  0  0  0
 17 37  1  0  0  0
 18 53  1  0  0  0
 20 21  1  0  0  0
 21 54  1  0  0  0
 25 55  1  0  0  0
 25 56  1  0  0  0
 26 27  2  0  0  0
 27 28  1  0  0  0
 27 32  1  0  0  0
 28 29  2  0  0  0
 28 35  1  0  0  0
 29 30  1  0  0  0
 29 57  1  0  0  0
 30 58  1  0  0  0
 31 59  1  0  0  0
 32 33  1  0  0  0
 32 60  1  0  0  0
 33 34  1  0  0  0
 33 36  2  0  0  0
 34 35  1  0  0  0
 34 61  1  0  0  0
 34 62  1  0  0  0
 37 63  1  0  0  0
 37 64  1  0  0  0
 37 65  1  0  0  0
M  END
> <s_m_entry_id>
7

> <s_m_entry_name>
4PLB-prep.1

> <s_pdb_PDB_TITLE>
CRYSTAL STRUCTURE OF S.A. GYRASE-AM8191 COMPLEX

> <s_pdb_PDB_ID>
4PLB

> <s_pdb_PDB_CLASSIFICATION>
ISOMERASE/ISOMERASE INHIBITOR/DNA

> <s_pdb_PDB_DEPOSITION_DATE>
16-MAY-14

> <s_pdb_PDB_format_version>
3.30

> <r_pdb_PDB_R>
0.177000001072884

> <r_pdb_PDB_Rfree>
0.219999998807907

> <r_pdb_PDB_RESOLUTION>
2.69

> <s_pdb_PDB_EXPDTA>
X-RAY DIFFRACTION

> <r_pdb_PDB_EXPDTA_TEMPERATURE>
100

> <r_pdb_PDB_EXPDTA_PH>
6

> <s_pdb_PDB_REMARK_350_Biomolecule_1_Chains>
E, F, B, D

> <s_pdb_PDB_REMARK_350_Biomolecule_1_Transformation_1>
1.000000 0.000000 0.000000   0.000000;0.000000 1.000000 0.000000   0.000000;0.000000 0.000000 1.000000   0.000000

> <b_ppw_prepared>
1

> <b_psp_distorted_structure>
-1

> <i_psp_model_num>
0

> <r_psp_Prime_Coulomb>
-47216.9487599359

> <r_psp_Prime_Covalent>
12025.2885653836

> <r_psp_Prime_vdW>
91136129.6199336

> <r_psp_Prime_Solv_GB>
-12158.0494875563

> <r_psp_Prime_Lipo>
-8401.27709240306

> <r_psp_Prime_Energy>
91078997.492413

> <s_psp_Prime_Energy_Force_Field>
OPLS_2005

> <s_psp_Prime_Energy_Solvent_Model>
VSGB2.0

> <r_psp_Prime_Hbond>
-746.9176228858

> <r_psp_Prime_Packing>
-56.7237301631803

> <r_psp_Prime_SelfCont>
-577.49939311963

> <r_i_Potential_Energy-OPLS3>
-45608.1255890836

> <r_i_RMS_Derivative-OPLS3>
0.125085364171903

> <r_i_Max_Derivative-OPLS3>
9.71031818060534

> <r_i_Stretch_Energy-OPLS3>
78.1182230816857

> <r_i_Bend_Energy-OPLS3>
1566.41438174864

> <r_i_LJ-14_Energy-OPLS3>
2175.32069455429

> <r_i_El-14_Energy-OPLS3>
-2810.11577782076

> <r_i_Van_der_Waals_Energy-OPLS3>
-3543.28809510712

> <r_i_Electrostatic_Energy-OPLS3>
-43368.5499571308

> <r_i_Dihedral_Energy-OPLS3>
293.974941590443

> <r_i_target_temperature>
298

> <r_pdb_PDB_CRYST1_a>
93.31

> <r_pdb_PDB_CRYST1_b>
93.31

> <r_pdb_PDB_CRYST1_c>
410.197

> <r_pdb_PDB_CRYST1_alpha>
90

> <r_pdb_PDB_CRYST1_beta>
90

> <r_pdb_PDB_CRYST1_gamma>
120

> <i_pdb_PDB_CRYST1_z>
12

> <s_pdb_PDB_CRYST1_Space_Group>
P 61

> <s_m_Source_Path>
/Users/Sebastito/Downloads/Maestro

> <s_m_Source_File>
4PLB-prep.mae

> <i_m_Source_File_Index>
1

> <s_m_source_file>
ligprep_1.maegz

> <i_m_source_file_index>
1

> <i_lp_mmshare_version>
37011

> <r_lp_tautomer_probability>
1

> <r_epik_Ionization_Penalty>
1.51598

> <r_epik_Ionization_Penalty_Charging>
0

> <r_epik_Ionization_Penalty_Neutral>
1.51598

> <r_epik_State_Penalty>
1.60726

> <r_epik_Charging_Adjusted_Penalty>
1.60726

> <i_epik_Tot_Q>
0

> <i_epik_Tot_abs_Q>
0

> <i_f3d_flags>
0

> <s_lp_Force_Field>
OPLS_2005

> <r_lp_Energy>
59.1334

> <b_lp_Chiralities_Consistent>
1

> <s_lp_Variant>
Ligand-nat-3

$$$$
Ligand-nat
                    3D
 Structure written by MMmdl.
 65 70  0  0  1  0            999 V2000
   -1.8757    3.3277    0.7265 C   0  0  0  0  0  0
   -1.4496    1.9860    0.9770 C   0  0  0  0  0  0
   -0.5914    1.9627   -1.3076 C   0  0  0  0  0  0
   -0.2859   -0.1298    0.0865 C   0  0  0  0  0  0
    1.2149   -0.1896    0.4511 C   0  0  2  0  0  0
    1.8768   -1.5811    0.2446 C   0  0  2  0  0  0
    2.0428   -1.9159   -1.2647 C   0  0  0  0  0  0
    2.6273   -3.3316   -1.4557 C   0  0  0  0  0  0
    1.5169   -3.9308    0.6877 C   0  0  0  0  0  0
    3.8705   -3.1074    0.7027 C   0  0  0  0  0  0
    3.3050   -5.3807   -0.1816 N   0  0  0  0  0  0
    4.5547   -5.6307   -0.9026 C   0  0  0  0  0  0
    4.9354   -7.0952   -0.8560 C   0  0  0  0  0  0
   -2.7293    3.3819    3.0114 C   0  0  0  0  0  0
    0.0392    1.3488   -2.3381 F   0  0  0  0  0  0
   -1.6574    1.3863    2.1741 N   0  0  0  0  0  0
   -2.4742    1.4319    4.3823 O   0  0  0  0  0  0
   -2.5240    4.0163    1.7739 C   0  0  0  0  0  0
   -2.2779    2.0609    3.1698 C   0  0  0  0  0  0
   -1.6799    3.9484   -0.4585 N   0  0  0  0  0  0
   -1.0539    3.2815   -1.4467 C   0  0  0  0  0  0
   -0.7921    1.2999   -0.0788 C   0  0  0  0  0  0
    2.8633   -3.9821   -0.0751 C   0  0  2  0  0  0
    1.0179   -2.5894    0.7887 O   0  0  0  0  0  0
    3.2615   -1.7107    0.9430 C   0  0  0  0  0  0
    4.5739   -7.8413   -1.9230 N   0  0  0  0  0  0
    4.8836   -9.1570   -1.9286 C   0  0  0  0  0  0
    5.5722   -9.7745   -0.8544 C   0  0  0  0  0  0
    5.9267   -8.9948    0.2635 C   0  0  0  0  0  0
    5.6074   -7.6246    0.2638 C   0  0  0  0  0  0
    1.3723    0.2392    1.7902 O   0  0  0  0  0  0
    4.4786   -9.9832   -2.9991 N   0  0  0  0  0  0
    4.8935  -11.2489   -3.1467 C   0  0  0  0  0  0
    5.9538  -11.7499   -2.1530 C   0  0  0  0  0  0
    5.8520  -11.1219   -0.8694 O   0  0  0  0  0  0
    4.4829  -11.9805   -4.0451 O   0  0  0  0  0  0
   -2.0171    0.0913    4.5322 C   0  0  0  0  0  0
   -0.4708   -0.6400   -0.8571 H   0  0  0  0  0  0
   -0.8821   -0.6773    0.8173 H   0  0  0  0  0  0
    1.7590    0.5244   -0.1686 H   0  0  0  0  0  0
    1.0892   -1.8594   -1.7874 H   0  0  0  0  0  0
    2.6926   -1.1805   -1.7404 H   0  0  0  0  0  0
    1.9425   -3.9384   -2.0499 H   0  0  0  0  0  0
    3.5553   -3.2637   -2.0242 H   0  0  0  0  0  0
    0.7633   -4.5409    0.1879 H   0  0  0  0  0  0
    1.6302   -4.3350    1.6946 H   0  0  0  0  0  0
    4.1231   -3.5709    1.6574 H   0  0  0  0  0  0
    4.8055   -3.0016    0.1521 H   0  0  0  0  0  0
    2.5646   -5.9277   -0.6096 H   0  0  0  0  0  0
    4.4678   -5.3234   -1.9451 H   0  0  0  0  0  0
    5.3755   -5.0584   -0.4713 H   0  0  0  0  0  0
   -3.2222    3.8984    3.8219 H   0  0  0  0  0  0
   -2.8625    5.0321    1.6298 H   0  0  0  0  0  0
   -0.9157    3.8165   -2.3747 H   0  0  0  0  0  0
    3.9420   -0.9397    0.5795 H   0  0  0  0  0  0
    3.1669   -1.5559    2.0181 H   0  0  0  0  0  0
    6.4372   -9.4395    1.1050 H   0  0  0  0  0  0
    5.8672   -6.9980    1.1045 H   0  0  0  0  0  0
    0.9014   -0.3582    2.3512 H   0  0  0  0  0  0
    3.8388   -9.5941   -3.6761 H   0  0  0  0  0  0
    5.8569  -12.8284   -2.0250 H   0  0  0  0  0  0
    6.9453  -11.5623   -2.5667 H   0  0  0  0  0  0
   -2.2449   -0.2568    5.5395 H   0  0  0  0  0  0
   -0.9374    0.0188    4.3932 H   0  0  0  0  0  0
   -2.5140   -0.5800    3.8302 H   0  0  0  0  0  0
  1  2  1  0  0  0
  1 18  1  0  0  0
  1 20  2  0  0  0
  2 16  1  0  0  0
  2 22  2  0  0  0
  3 15  1  0  0  0
  3 21  2  0  0  0
  3 22  1  0  0  0
  4  5  1  0  0  0
  4 22  1  0  0  0
  4 38  1  0  0  0
  4 39  1  0  0  0
  5  6  1  0  0  0
  5 31  1  0  0  0
  5 40  1  0  0  0
  6  7  1  0  0  0
  6 24  1  0  0  0
  6 25  1  0  0  0
  7  8  1  0  0  0
  7 41  1  0  0  0
  7 42  1  0  0  0
  8 23  1  0  0  0
  8 43  1  0  0  0
  8 44  1  0  0  0
  9 23  1  0  0  0
  9 24  1  0  0  0
  9 45  1  0  0  0
  9 46  1  0  0  0
 10 23  1  0  0  0
 10 25  1  0  0  0
 10 47  1  0  0  0
 10 48  1  0  0  0
 11 12  1  0  0  0
 11 23  1  0  0  0
 11 49  1  0  0  0
 12 13  1  0  0  0
 12 50  1  0  0  0
 12 51  1  0  0  0
 13 26  1  0  0  0
 13 30  2  0  0  0
 14 18  2  0  0  0
 14 19  1  0  0  0
 14 52  1  0  0  0
 16 19  2  0  0  0
 17 19  1  0  0  0
 17 37  1  0  0  0
 18 53  1  0  0  0
 20 21  1  0  0  0
 21 54  1  0  0  0
 25 55  1  0  0  0
 25 56  1  0  0  0
 26 27  2  0  0  0
 27 28  1  0  0  0
 27 32  1  0  0  0
 28 29  2  0  0  0
 28 35  1  0  0  0
 29 30  1  0  0  0
 29 57  1  0  0  0
 30 58  1  0  0  0
 31 59  1  0  0  0
 32 33  1  0  0  0
 32 60  1  0  0  0
 33 34  1  0  0  0
 33 36  2  0  0  0
 34 35  1  0  0  0
 34 61  1  0  0  0
 34 62  1  0  0  0
 37 63  1  0  0  0
 37 64  1  0  0  0
 37 65  1  0  0  0
M  END
> <s_m_entry_id>
7

> <s_m_entry_name>
4PLB-prep.1

> <s_pdb_PDB_TITLE>
CRYSTAL STRUCTURE OF S.A. GYRASE-AM8191 COMPLEX

> <s_pdb_PDB_ID>
4PLB

> <s_pdb_PDB_CLASSIFICATION>
ISOMERASE/ISOMERASE INHIBITOR/DNA

> <s_pdb_PDB_DEPOSITION_DATE>
16-MAY-14

> <s_pdb_PDB_format_version>
3.30

> <r_pdb_PDB_R>
0.177000001072884

> <r_pdb_PDB_Rfree>
0.219999998807907

> <r_pdb_PDB_RESOLUTION>
2.69

> <s_pdb_PDB_EXPDTA>
X-RAY DIFFRACTION

> <r_pdb_PDB_EXPDTA_TEMPERATURE>
100

> <r_pdb_PDB_EXPDTA_PH>
6

> <s_pdb_PDB_REMARK_350_Biomolecule_1_Chains>
E, F, B, D

> <s_pdb_PDB_REMARK_350_Biomolecule_1_Transformation_1>
1.000000 0.000000 0.000000   0.000000;0.000000 1.000000 0.000000   0.000000;0.000000 0.000000 1.000000   0.000000

> <b_ppw_prepared>
1

> <b_psp_distorted_structure>
-1

> <i_psp_model_num>
0

> <r_psp_Prime_Coulomb>
-47216.9487599359

> <r_psp_Prime_Covalent>
12025.2885653836

> <r_psp_Prime_vdW>
91136129.6199336

> <r_psp_Prime_Solv_GB>
-12158.0494875563

> <r_psp_Prime_Lipo>
-8401.27709240306

> <r_psp_Prime_Energy>
91078997.492413

> <s_psp_Prime_Energy_Force_Field>
OPLS_2005

> <s_psp_Prime_Energy_Solvent_Model>
VSGB2.0

> <r_psp_Prime_Hbond>
-746.9176228858

> <r_psp_Prime_Packing>
-56.7237301631803

> <r_psp_Prime_SelfCont>
-577.49939311963

> <r_i_Potential_Energy-OPLS3>
-45608.1255890836

> <r_i_RMS_Derivative-OPLS3>
0.125085364171903

> <r_i_Max_Derivative-OPLS3>
9.71031818060534

> <r_i_Stretch_Energy-OPLS3>
78.1182230816857

> <r_i_Bend_Energy-OPLS3>
1566.41438174864

> <r_i_LJ-14_Energy-OPLS3>
2175.32069455429

> <r_i_El-14_Energy-OPLS3>
-2810.11577782076

> <r_i_Van_der_Waals_Energy-OPLS3>
-3543.28809510712

> <r_i_Electrostatic_Energy-OPLS3>
-43368.5499571308

> <r_i_Dihedral_Energy-OPLS3>
293.974941590443

> <r_i_target_temperature>
298

> <r_pdb_PDB_CRYST1_a>
93.31

> <r_pdb_PDB_CRYST1_b>
93.31

> <r_pdb_PDB_CRYST1_c>
410.197

> <r_pdb_PDB_CRYST1_alpha>
90

> <r_pdb_PDB_CRYST1_beta>
90

> <r_pdb_PDB_CRYST1_gamma>
120

> <i_pdb_PDB_CRYST1_z>
12

> <s_pdb_PDB_CRYST1_Space_Group>
P 61

> <s_m_Source_Path>
/Users/Sebastito/Downloads/Maestro

> <s_m_Source_File>
4PLB-prep.mae

> <i_m_Source_File_Index>
1

> <s_m_source_file>
ligprep_1.maegz

> <i_m_source_file_index>
1

> <i_lp_mmshare_version>
37011

> <r_lp_tautomer_probability>
1

> <r_epik_Ionization_Penalty>
1.51598

> <r_epik_Ionization_Penalty_Charging>
0

> <r_epik_Ionization_Penalty_Neutral>
1.51598

> <r_epik_State_Penalty>
1.60726

> <r_epik_Charging_Adjusted_Penalty>
1.60726

> <i_epik_Tot_Q>
0

> <i_epik_Tot_abs_Q>
0

> <i_f3d_flags>
0

> <s_lp_Force_Field>
OPLS_2005

> <r_lp_Energy>
57.7214

> <b_lp_Chiralities_Consistent>
1

> <s_lp_Variant>
Ligand-nat-4

$$$$
